LJ
CONTROL PARAMETERS
 Mode:                Molecular Dynamics
 Number Of Steps:     60000
 Equilibration Steps: 10000
 Timestep:            0.0005 ps
 ConstraintTolerance: 1.000e-08
 Ensemble:            NVT    tau(T): 0.02000 Temperature: 240.5 K 
 Temperature scaling: Every 10 steps during equilibration period
 Forcefield:          VDW
 Cutoff : 2.500 Angstrom DCutoff: 0.3000 Angstrom
 LongRangeCorrection: Enabled

 PBC:   CUBIC, Shift particles

 FGDistribution:      Enabled, Active Species: 0    DeltaX = 1.200
 Statistics:          Enabled, Accumulation Interval: 100
 PeriodicOutput Interval:       100
 AveragesOutputInterval:        1000
 Configuration Save Start Step: 1
 Configuration Save Interval:   100000
 Configuration Save Data Level: Coordinates only
 Configuration Input DataLevel: Coordinates only
 IsPDBOutput:   true


--------------------------------------------------------------------------------

Energy units:kj/mol

MOLECULAR ENSEMBLE  
LJ SYSTEM
TotalMass        = 512.000000
CentreOfMass     = -0.002391 0.003500 -0.012219
DegreesOfFreedom = 1536

LJ
number of molecules 512
Atoms 1
 nr atom type res  resnr ffid mass   charge freeze
  1   LJ   LJ  MOL    0   0   1.00   0.0000 false

charge: 0
mass: 1
degrees of freedom: 3

InteractionWeightVDW
0 

InteractionWeightQQ
0 

Atom Connectivity
1 

MC displacement parameters
MaximumTranslation: 0.01 Ang   MaximumRotation: 5 deg

TotalMass        = 512
CentreOfMass     = -0.00239063 0.0035 -0.0122188
DegreesOfFreedom = 1536

NumberOfMolecules  512



--------------------------------------------------------------------------------

Forcefield NON_BONDED PARAMETERS

Cutoff:2.5  DCutoff:0.3
TabulationSize = 2750
vdw 1
  LJ   LJ lj          1        1

--------------------------------------------------------------------------------

CELL
   A          B          C          Alpha      Beta       Gamma   
    8.6180     8.6180     8.6180    90.0000    90.0000    90.0000
Lattice vectors
   8.6180000000e+00    0.0000000000e+00    0.0000000000e+00
   0.0000000000e+00    8.6180000000e+00    0.0000000000e+00
   0.0000000000e+00    0.0000000000e+00    8.6180000000e+00
Cell Volume: 640.058   
Cell Type: Cubic    PBCType: CUBIC

--------------------------------------------------------------------------------

THERMOSTAT
ExternalTemperature: 240.5 K
Temperature:         0 K
DegreesOfFreedom:    1533
Tau:  0.02 ps
Chi:      0
Chi_bhDT: 0
Chi_fhDT: 0
ConservedIntegral:  0

--------------------------------------------------------------------------------

BAROSTAT
ExtPressure:  599 kbar
Tau(P):       1 ps
Pressure:     0 kbar
Virial:       0 kJ/mol
StressTensor: false


--------------------------------------------------------------------------------

Step 100	 Instantaneous Values
System
Temperature(K) = 240.5000    
Pressure(kbar) = 67.9642     
ConservedQty   = -1014.3180  
ENERGY 
Total     = -1038.6229    Kinetic   = 1532.7240     Potential = -2571.3469  
VDW       = -2571.3469    QQ        = 0.0000        Bond      = 0.0000      
BondAngle = 0.0000        Torsion   = 0.0000        Tether    = 0.0000      
VIRIAL 
Total     = -4899.7322    Constraint= 0.0000      
VDW       = -4899.7322    QQ        = 0.0000        Bond      = 0.0000      
BondAngle = 0.0000        Torsion   = 0.0000        Tether    = 0.0000      

--------------------------------------------------------------------------------

Step 200	 Instantaneous Values
System
Temperature(K) = 240.5000    
Pressure(kbar) = 87.1757     
ConservedQty   = -858.9899   
ENERGY 
Total     = -880.4271     Kinetic   = 1532.7240     Potential = -2413.1512  
VDW       = -2413.1512    QQ        = 0.0000        Bond      = 0.0000      
BondAngle = 0.0000        Torsion   = 0.0000        Tether    = 0.0000      
VIRIAL 
Total     = -7151.2476    Constraint= 0.0000      
VDW       = -7151.2476    QQ        = 0.0000        Bond      = 0.0000      
BondAngle = 0.0000        Torsion   = 0.0000        Tether    = 0.0000      

--------------------------------------------------------------------------------

Step 300	 Instantaneous Values
System
Temperature(K) = 240.5000    
Pressure(kbar) = 85.9263     
ConservedQty   = -889.4770   
ENERGY 
Total     = -909.0078     Kinetic   = 1532.7240     Potential = -2441.7318  
VDW       = -2441.7318    QQ        = 0.0000        Bond      = 0.0000      
BondAngle = 0.0000        Torsion   = 0.0000        Tether    = 0.0000      
VIRIAL 
Total     = -7004.8270    Constraint= 0.0000      
VDW       = -7004.8270    QQ        = 0.0000        Bond      = 0.0000      
BondAngle = 0.0000        Torsion   = 0.0000        Tether    = 0.0000      

--------------------------------------------------------------------------------

Step 400	 Instantaneous Values
System
Temperature(K) = 240.5000    
Pressure(kbar) = 84.3673     
ConservedQty   = -892.9187   
ENERGY 
Total     = -911.5521     Kinetic   = 1532.7240     Potential = -2444.2761  
VDW       = -2444.2761    QQ        = 0.0000        Bond      = 0.0000      
BondAngle = 0.0000        Torsion   = 0.0000        Tether    = 0.0000      
VIRIAL 
Total     = -6822.1109    Constraint= 0.0000      
VDW       = -6822.1109    QQ        = 0.0000        Bond      = 0.0000      
BondAngle = 0.0000        Torsion   = 0.0000        Tether    = 0.0000      

--------------------------------------------------------------------------------

Step 500	 Instantaneous Values
System
Temperature(K) = 240.5000    
Pressure(kbar) = 89.6375     
ConservedQty   = -864.9965   
ENERGY 
Total     = -887.4017     Kinetic   = 1532.7240     Potential = -2420.1257  
VDW       = -2420.1257    QQ        = 0.0000        Bond      = 0.0000      
BondAngle = 0.0000        Torsion   = 0.0000        Tether    = 0.0000      
VIRIAL 
Total     = -7439.7655    Constraint= 0.0000      
VDW       = -7439.7655    QQ        = 0.0000        Bond      = 0.0000      
BondAngle = 0.0000        Torsion   = 0.0000        Tether    = 0.0000      

--------------------------------------------------------------------------------

Step 600	 Instantaneous Values
System
Temperature(K) = 240.5000    
Pressure(kbar) = 86.7281     
ConservedQty   = -877.4112   
ENERGY 
Total     = -899.0986     Kinetic   = 1532.7240     Potential = -2431.8226  
VDW       = -2431.8226    QQ        = 0.0000        Bond      = 0.0000      
BondAngle = 0.0000        Torsion   = 0.0000        Tether    = 0.0000      
VIRIAL 
Total     = -7098.7921    Constraint= 0.0000      
VDW       = -7098.7921    QQ        = 0.0000        Bond      = 0.0000      
BondAngle = 0.0000        Torsion   = 0.0000        Tether    = 0.0000      

--------------------------------------------------------------------------------

Step 700	 Instantaneous Values
System
Temperature(K) = 240.5000    
Pressure(kbar) = 90.7682     
ConservedQty   = -850.5773   
ENERGY 
Total     = -871.8384     Kinetic   = 1532.7240     Potential = -2404.5624  
VDW       = -2404.5624    QQ        = 0.0000        Bond      = 0.0000      
BondAngle = 0.0000        Torsion   = 0.0000        Tether    = 0.0000      
VIRIAL 
Total     = -7572.2826    Constraint= 0.0000      
VDW       = -7572.2826    QQ        = 0.0000        Bond      = 0.0000      
BondAngle = 0.0000        Torsion   = 0.0000        Tether    = 0.0000      

--------------------------------------------------------------------------------

Step 800	 Instantaneous Values
System
Temperature(K) = 240.5000    
Pressure(kbar) = 78.8387     
ConservedQty   = -931.7586   
ENERGY 
Total     = -954.6462     Kinetic   = 1532.7240     Potential = -2487.3702  
VDW       = -2487.3702    QQ        = 0.0000        Bond      = 0.0000      
BondAngle = 0.0000        Torsion   = 0.0000        Tether    = 0.0000      
VIRIAL 
Total     = -6174.1823    Constraint= 0.0000      
VDW       = -6174.1823    QQ        = 0.0000        Bond      = 0.0000      
BondAngle = 0.0000        Torsion   = 0.0000        Tether    = 0.0000      

--------------------------------------------------------------------------------

Step 900	 Instantaneous Values
System
Temperature(K) = 240.5000    
Pressure(kbar) = 77.5449     
ConservedQty   = -941.7088   
ENERGY 
Total     = -965.5214     Kinetic   = 1532.7240     Potential = -2498.2454  
VDW       = -2498.2454    QQ        = 0.0000        Bond      = 0.0000      
BondAngle = 0.0000        Torsion   = 0.0000        Tether    = 0.0000      
VIRIAL 
Total     = -6022.5481    Constraint= 0.0000      
VDW       = -6022.5481    QQ        = 0.0000        Bond      = 0.0000      
BondAngle = 0.0000        Torsion   = 0.0000        Tether    = 0.0000      

--------------------------------------------------------------------------------

Step 1000	 Instantaneous Values
System
Temperature(K) = 240.5000    
Pressure(kbar) = 86.0443     
ConservedQty   = -868.9409   
ENERGY 
Total     = -889.7767     Kinetic   = 1532.7240     Potential = -2422.5007  
VDW       = -2422.5007    QQ        = 0.0000        Bond      = 0.0000      
BondAngle = 0.0000        Torsion   = 0.0000        Tether    = 0.0000      
VIRIAL 
Total     = -7018.6557    Constraint= 0.0000      
VDW       = -7018.6557    QQ        = 0.0000        Bond      = 0.0000      
BondAngle = 0.0000        Torsion   = 0.0000        Tether    = 0.0000      

--------------------------------------------------------------------------------

Step 1100	 Instantaneous Values
System
Temperature(K) = 240.5000    
Pressure(kbar) = 83.5942     
ConservedQty   = -902.5047   
ENERGY 
Total     = -927.3308     Kinetic   = 1532.7240     Potential = -2460.0548  
VDW       = -2460.0548    QQ        = 0.0000        Bond      = 0.0000      
BondAngle = 0.0000        Torsion   = 0.0000        Tether    = 0.0000      
VIRIAL 
Total     = -6731.5140    Constraint= 0.0000      
VDW       = -6731.5140    QQ        = 0.0000        Bond      = 0.0000      
BondAngle = 0.0000        Torsion   = 0.0000        Tether    = 0.0000      

--------------------------------------------------------------------------------

Step 1200	 Instantaneous Values
System
Temperature(K) = 240.5000    
Pressure(kbar) = 78.5522     
ConservedQty   = -925.8885   
ENERGY 
Total     = -953.0554     Kinetic   = 1532.7240     Potential = -2485.7794  
VDW       = -2485.7794    QQ        = 0.0000        Bond      = 0.0000      
BondAngle = 0.0000        Torsion   = 0.0000        Tether    = 0.0000      
VIRIAL 
Total     = -6140.5990    Constraint= 0.0000      
VDW       = -6140.5990    QQ        = 0.0000        Bond      = 0.0000      
BondAngle = 0.0000        Torsion   = 0.0000        Tether    = 0.0000      

--------------------------------------------------------------------------------

Step 1300	 Instantaneous Values
System
Temperature(K) = 240.5000    
Pressure(kbar) = 86.3962     
ConservedQty   = -869.6465   
ENERGY 
Total     = -894.5188     Kinetic   = 1532.7240     Potential = -2427.2428  
VDW       = -2427.2428    QQ        = 0.0000        Bond      = 0.0000      
BondAngle = 0.0000        Torsion   = 0.0000        Tether    = 0.0000      
VIRIAL 
Total     = -7059.8903    Constraint= 0.0000      
VDW       = -7059.8903    QQ        = 0.0000        Bond      = 0.0000      
BondAngle = 0.0000        Torsion   = 0.0000        Tether    = 0.0000      

--------------------------------------------------------------------------------

Step 1400	 Instantaneous Values
System
Temperature(K) = 240.5000    
Pressure(kbar) = 86.4729     
ConservedQty   = -869.5597   
ENERGY 
Total     = -894.1516     Kinetic   = 1532.7240     Potential = -2426.8756  
VDW       = -2426.8756    QQ        = 0.0000        Bond      = 0.0000      
BondAngle = 0.0000        Torsion   = 0.0000        Tether    = 0.0000      
VIRIAL 
Total     = -7068.8801    Constraint= 0.0000      
VDW       = -7068.8801    QQ        = 0.0000        Bond      = 0.0000      
BondAngle = 0.0000        Torsion   = 0.0000        Tether    = 0.0000      

--------------------------------------------------------------------------------

Step 1500	 Instantaneous Values
System
Temperature(K) = 240.5000    
Pressure(kbar) = 82.7880     
ConservedQty   = -902.9065   
ENERGY 
Total     = -931.0331     Kinetic   = 1532.7240     Potential = -2463.7571  
VDW       = -2463.7571    QQ        = 0.0000        Bond      = 0.0000      
BondAngle = 0.0000        Torsion   = 0.0000        Tether    = 0.0000      
VIRIAL 
Total     = -6637.0242    Constraint= 0.0000      
VDW       = -6637.0242    QQ        = 0.0000        Bond      = 0.0000      
BondAngle = 0.0000        Torsion   = 0.0000        Tether    = 0.0000      

--------------------------------------------------------------------------------

Step 1600	 Instantaneous Values
System
Temperature(K) = 240.5000    
Pressure(kbar) = 89.2254     
ConservedQty   = -852.2931   
ENERGY 
Total     = -876.2385     Kinetic   = 1532.7240     Potential = -2408.9625  
VDW       = -2408.9625    QQ        = 0.0000        Bond      = 0.0000      
BondAngle = 0.0000        Torsion   = 0.0000        Tether    = 0.0000      
VIRIAL 
Total     = -7391.4630    Constraint= 0.0000      
VDW       = -7391.4630    QQ        = 0.0000        Bond      = 0.0000      
BondAngle = 0.0000        Torsion   = 0.0000        Tether    = 0.0000      

--------------------------------------------------------------------------------

Step 1700	 Instantaneous Values
System
Temperature(K) = 240.5000    
Pressure(kbar) = 86.3532     
ConservedQty   = -882.4214   
ENERGY 
Total     = -909.2233     Kinetic   = 1532.7240     Potential = -2441.9473  
VDW       = -2441.9473    QQ        = 0.0000        Bond      = 0.0000      
BondAngle = 0.0000        Torsion   = 0.0000        Tether    = 0.0000      
VIRIAL 
Total     = -7054.8548    Constraint= 0.0000      
VDW       = -7054.8548    QQ        = 0.0000        Bond      = 0.0000      
BondAngle = 0.0000        Torsion   = 0.0000        Tether    = 0.0000      

--------------------------------------------------------------------------------

Step 1800	 Instantaneous Values
System
Temperature(K) = 240.5000    
Pressure(kbar) = 85.7369     
ConservedQty   = -888.9021   
ENERGY 
Total     = -915.7964     Kinetic   = 1532.7240     Potential = -2448.5204  
VDW       = -2448.5204    QQ        = 0.0000        Bond      = 0.0000      
BondAngle = 0.0000        Torsion   = 0.0000        Tether    = 0.0000      
VIRIAL 
Total     = -6982.6296    Constraint= 0.0000      
VDW       = -6982.6296    QQ        = 0.0000        Bond      = 0.0000      
BondAngle = 0.0000        Torsion   = 0.0000        Tether    = 0.0000      

--------------------------------------------------------------------------------

Step 1900	 Instantaneous Values
System
Temperature(K) = 240.5000    
Pressure(kbar) = 86.3235     
ConservedQty   = -873.5937   
ENERGY 
Total     = -898.2117     Kinetic   = 1532.7240     Potential = -2430.9357  
VDW       = -2430.9357    QQ        = 0.0000        Bond      = 0.0000      
BondAngle = 0.0000        Torsion   = 0.0000        Tether    = 0.0000      
VIRIAL 
Total     = -7051.3691    Constraint= 0.0000      
VDW       = -7051.3691    QQ        = 0.0000        Bond      = 0.0000      
BondAngle = 0.0000        Torsion   = 0.0000        Tether    = 0.0000      

--------------------------------------------------------------------------------

Step 2000	 Instantaneous Values
System
Temperature(K) = 240.5000    
Pressure(kbar) = 88.8405     
ConservedQty   = -843.5145   
ENERGY 
Total     = -871.0342     Kinetic   = 1532.7240     Potential = -2403.7582  
VDW       = -2403.7582    QQ        = 0.0000        Bond      = 0.0000      
BondAngle = 0.0000        Torsion   = 0.0000        Tether    = 0.0000      
VIRIAL 
Total     = -7346.3602    Constraint= 0.0000      
VDW       = -7346.3602    QQ        = 0.0000        Bond      = 0.0000      
BondAngle = 0.0000        Torsion   = 0.0000        Tether    = 0.0000      

--------------------------------------------------------------------------------

Step 2100	 Instantaneous Values
System
Temperature(K) = 240.5000    
Pressure(kbar) = 97.2003     
ConservedQty   = -807.3006   
ENERGY 
Total     = -834.5825     Kinetic   = 1532.7240     Potential = -2367.3065  
VDW       = -2367.3065    QQ        = 0.0000        Bond      = 0.0000      
BondAngle = 0.0000        Torsion   = 0.0000        Tether    = 0.0000      
VIRIAL 
Total     = -8326.1009    Constraint= 0.0000      
VDW       = -8326.1009    QQ        = 0.0000        Bond      = 0.0000      
BondAngle = 0.0000        Torsion   = 0.0000        Tether    = 0.0000      

--------------------------------------------------------------------------------

Step 2200	 Instantaneous Values
System
Temperature(K) = 240.5000    
Pressure(kbar) = 88.1177     
ConservedQty   = -861.2943   
ENERGY 
Total     = -888.2081     Kinetic   = 1532.7240     Potential = -2420.9321  
VDW       = -2420.9321    QQ        = 0.0000        Bond      = 0.0000      
BondAngle = 0.0000        Torsion   = 0.0000        Tether    = 0.0000      
VIRIAL 
Total     = -7261.6465    Constraint= 0.0000      
VDW       = -7261.6465    QQ        = 0.0000        Bond      = 0.0000      
BondAngle = 0.0000        Torsion   = 0.0000        Tether    = 0.0000      

--------------------------------------------------------------------------------

Step 2300	 Instantaneous Values
System
Temperature(K) = 240.5000    
Pressure(kbar) = 88.1740     
ConservedQty   = -876.3043   
ENERGY 
Total     = -901.0464     Kinetic   = 1532.7240     Potential = -2433.7704  
VDW       = -2433.7704    QQ        = 0.0000        Bond      = 0.0000      
BondAngle = 0.0000        Torsion   = 0.0000        Tether    = 0.0000      
VIRIAL 
Total     = -7268.2466    Constraint= 0.0000      
VDW       = -7268.2466    QQ        = 0.0000        Bond      = 0.0000      
BondAngle = 0.0000        Torsion   = 0.0000        Tether    = 0.0000      

--------------------------------------------------------------------------------

Step 2400	 Instantaneous Values
System
Temperature(K) = 240.5000    
Pressure(kbar) = 90.0028     
ConservedQty   = -850.8135   
ENERGY 
Total     = -873.4869     Kinetic   = 1532.7240     Potential = -2406.2109  
VDW       = -2406.2109    QQ        = 0.0000        Bond      = 0.0000      
BondAngle = 0.0000        Torsion   = 0.0000        Tether    = 0.0000      
VIRIAL 
Total     = -7482.5797    Constraint= 0.0000      
VDW       = -7482.5797    QQ        = 0.0000        Bond      = 0.0000      
BondAngle = 0.0000        Torsion   = 0.0000        Tether    = 0.0000      

--------------------------------------------------------------------------------

Step 2500	 Instantaneous Values
System
Temperature(K) = 240.5000    
Pressure(kbar) = 84.1632     
ConservedQty   = -892.4709   
ENERGY 
Total     = -917.0518     Kinetic   = 1532.7240     Potential = -2449.7758  
VDW       = -2449.7758    QQ        = 0.0000        Bond      = 0.0000      
BondAngle = 0.0000        Torsion   = 0.0000        Tether    = 0.0000      
VIRIAL 
Total     = -6798.1995    Constraint= 0.0000      
VDW       = -6798.1995    QQ        = 0.0000        Bond      = 0.0000      
BondAngle = 0.0000        Torsion   = 0.0000        Tether    = 0.0000      

--------------------------------------------------------------------------------

Step 2600	 Instantaneous Values
System
Temperature(K) = 240.5000    
Pressure(kbar) = 78.7983     
ConservedQty   = -927.8426   
ENERGY 
Total     = -953.1953     Kinetic   = 1532.7240     Potential = -2485.9193  
VDW       = -2485.9193    QQ        = 0.0000        Bond      = 0.0000      
BondAngle = 0.0000        Torsion   = 0.0000        Tether    = 0.0000      
VIRIAL 
Total     = -6169.4411    Constraint= 0.0000      
VDW       = -6169.4411    QQ        = 0.0000        Bond      = 0.0000      
BondAngle = 0.0000        Torsion   = 0.0000        Tether    = 0.0000      

--------------------------------------------------------------------------------

Step 2700	 Instantaneous Values
System
Temperature(K) = 240.5000    
Pressure(kbar) = 89.6250     
ConservedQty   = -860.8504   
ENERGY 
Total     = -884.4369     Kinetic   = 1532.7240     Potential = -2417.1609  
VDW       = -2417.1609    QQ        = 0.0000        Bond      = 0.0000      
BondAngle = 0.0000        Torsion   = 0.0000        Tether    = 0.0000      
VIRIAL 
Total     = -7438.3008    Constraint= 0.0000      
VDW       = -7438.3008    QQ        = 0.0000        Bond      = 0.0000      
BondAngle = 0.0000        Torsion   = 0.0000        Tether    = 0.0000      

--------------------------------------------------------------------------------

Step 2800	 Instantaneous Values
System
Temperature(K) = 240.5000    
Pressure(kbar) = 82.0059     
ConservedQty   = -912.7676   
ENERGY 
Total     = -937.0711     Kinetic   = 1532.7240     Potential = -2469.7952  
VDW       = -2469.7952    QQ        = 0.0000        Bond      = 0.0000      
BondAngle = 0.0000        Torsion   = 0.0000        Tether    = 0.0000      
VIRIAL 
Total     = -6545.3693    Constraint= 0.0000      
VDW       = -6545.3693    QQ        = 0.0000        Bond      = 0.0000      
BondAngle = 0.0000        Torsion   = 0.0000        Tether    = 0.0000      

--------------------------------------------------------------------------------

Step 2900	 Instantaneous Values
System
Temperature(K) = 240.5000    
Pressure(kbar) = 86.3712     
ConservedQty   = -873.2166   
ENERGY 
Total     = -896.4679     Kinetic   = 1532.7240     Potential = -2429.1919  
VDW       = -2429.1919    QQ        = 0.0000        Bond      = 0.0000      
BondAngle = 0.0000        Torsion   = 0.0000        Tether    = 0.0000      
VIRIAL 
Total     = -7056.9652    Constraint= 0.0000      
VDW       = -7056.9652    QQ        = 0.0000        Bond      = 0.0000      
BondAngle = 0.0000        Torsion   = 0.0000        Tether    = 0.0000      

--------------------------------------------------------------------------------

Step 3000	 Instantaneous Values
System
Temperature(K) = 240.5000    
Pressure(kbar) = 80.4966     
ConservedQty   = -901.8135   
ENERGY 
Total     = -925.6946     Kinetic   = 1532.7240     Potential = -2458.4186  
VDW       = -2458.4186    QQ        = 0.0000        Bond      = 0.0000      
BondAngle = 0.0000        Torsion   = 0.0000        Tether    = 0.0000      
VIRIAL 
Total     = -6368.4870    Constraint= 0.0000      
VDW       = -6368.4870    QQ        = 0.0000        Bond      = 0.0000      
BondAngle = 0.0000        Torsion   = 0.0000        Tether    = 0.0000      

--------------------------------------------------------------------------------

Step 3100	 Instantaneous Values
System
Temperature(K) = 240.5000    
Pressure(kbar) = 80.0320     
ConservedQty   = -923.0645   
ENERGY 
Total     = -950.1455     Kinetic   = 1532.7240     Potential = -2482.8695  
VDW       = -2482.8695    QQ        = 0.0000        Bond      = 0.0000      
BondAngle = 0.0000        Torsion   = 0.0000        Tether    = 0.0000      
VIRIAL 
Total     = -6314.0262    Constraint= 0.0000      
VDW       = -6314.0262    QQ        = 0.0000        Bond      = 0.0000      
BondAngle = 0.0000        Torsion   = 0.0000        Tether    = 0.0000      

--------------------------------------------------------------------------------

Step 3200	 Instantaneous Values
System
Temperature(K) = 240.5000    
Pressure(kbar) = 86.3665     
ConservedQty   = -885.0947   
ENERGY 
Total     = -911.6014     Kinetic   = 1532.7240     Potential = -2444.3254  
VDW       = -2444.3254    QQ        = 0.0000        Bond      = 0.0000      
BondAngle = 0.0000        Torsion   = 0.0000        Tether    = 0.0000      
VIRIAL 
Total     = -7056.4082    Constraint= 0.0000      
VDW       = -7056.4082    QQ        = 0.0000        Bond      = 0.0000      
BondAngle = 0.0000        Torsion   = 0.0000        Tether    = 0.0000      

--------------------------------------------------------------------------------

Step 3300	 Instantaneous Values
System
Temperature(K) = 240.5000    
Pressure(kbar) = 82.9893     
ConservedQty   = -902.9859   
ENERGY 
Total     = -929.9276     Kinetic   = 1532.7240     Potential = -2462.6516  
VDW       = -2462.6516    QQ        = 0.0000        Bond      = 0.0000      
BondAngle = 0.0000        Torsion   = 0.0000        Tether    = 0.0000      
VIRIAL 
Total     = -6660.6217    Constraint= 0.0000      
VDW       = -6660.6217    QQ        = 0.0000        Bond      = 0.0000      
BondAngle = 0.0000        Torsion   = 0.0000        Tether    = 0.0000      

--------------------------------------------------------------------------------

Step 3400	 Instantaneous Values
System
Temperature(K) = 240.5000    
Pressure(kbar) = 98.2402     
ConservedQty   = -793.9102   
ENERGY 
Total     = -818.6546     Kinetic   = 1532.7240     Potential = -2351.3786  
VDW       = -2351.3786    QQ        = 0.0000        Bond      = 0.0000      
BondAngle = 0.0000        Torsion   = 0.0000        Tether    = 0.0000      
VIRIAL 
Total     = -8447.9724    Constraint= 0.0000      
VDW       = -8447.9724    QQ        = 0.0000        Bond      = 0.0000      
BondAngle = 0.0000        Torsion   = 0.0000        Tether    = 0.0000      

--------------------------------------------------------------------------------

Step 3500	 Instantaneous Values
System
Temperature(K) = 240.5000    
Pressure(kbar) = 97.1545     
ConservedQty   = -809.3549   
ENERGY 
Total     = -835.6017     Kinetic   = 1532.7240     Potential = -2368.3257  
VDW       = -2368.3257    QQ        = 0.0000        Bond      = 0.0000      
BondAngle = 0.0000        Torsion   = 0.0000        Tether    = 0.0000      
VIRIAL 
Total     = -8320.7294    Constraint= 0.0000      
VDW       = -8320.7294    QQ        = 0.0000        Bond      = 0.0000      
BondAngle = 0.0000        Torsion   = 0.0000        Tether    = 0.0000      

--------------------------------------------------------------------------------

Step 3600	 Instantaneous Values
System
Temperature(K) = 240.5000    
Pressure(kbar) = 87.1045     
ConservedQty   = -861.1046   
ENERGY 
Total     = -890.7260     Kinetic   = 1532.7240     Potential = -2423.4500  
VDW       = -2423.4500    QQ        = 0.0000        Bond      = 0.0000      
BondAngle = 0.0000        Torsion   = 0.0000        Tether    = 0.0000      
VIRIAL 
Total     = -7142.9094    Constraint= 0.0000      
VDW       = -7142.9094    QQ        = 0.0000        Bond      = 0.0000      
BondAngle = 0.0000        Torsion   = 0.0000        Tether    = 0.0000      

--------------------------------------------------------------------------------

Step 3700	 Instantaneous Values
System
Temperature(K) = 240.5000    
Pressure(kbar) = 78.7982     
ConservedQty   = -931.7290   
ENERGY 
Total     = -960.0319     Kinetic   = 1532.7240     Potential = -2492.7559  
VDW       = -2492.7559    QQ        = 0.0000        Bond      = 0.0000      
BondAngle = 0.0000        Torsion   = 0.0000        Tether    = 0.0000      
VIRIAL 
Total     = -6169.4348    Constraint= 0.0000      
VDW       = -6169.4348    QQ        = 0.0000        Bond      = 0.0000      
BondAngle = 0.0000        Torsion   = 0.0000        Tether    = 0.0000      

--------------------------------------------------------------------------------

Step 3800	 Instantaneous Values
System
Temperature(K) = 240.5000    
Pressure(kbar) = 81.6278     
ConservedQty   = -907.6048   
ENERGY 
Total     = -930.0202     Kinetic   = 1532.7240     Potential = -2462.7443  
VDW       = -2462.7443    QQ        = 0.0000        Bond      = 0.0000      
BondAngle = 0.0000        Torsion   = 0.0000        Tether    = 0.0000      
VIRIAL 
Total     = -6501.0567    Constraint= 0.0000      
VDW       = -6501.0567    QQ        = 0.0000        Bond      = 0.0000      
BondAngle = 0.0000        Torsion   = 0.0000        Tether    = 0.0000      

--------------------------------------------------------------------------------

Step 3900	 Instantaneous Values
System
Temperature(K) = 240.5000    
Pressure(kbar) = 87.0481     
ConservedQty   = -880.7432   
ENERGY 
Total     = -902.7168     Kinetic   = 1532.7240     Potential = -2435.4408  
VDW       = -2435.4408    QQ        = 0.0000        Bond      = 0.0000      
BondAngle = 0.0000        Torsion   = 0.0000        Tether    = 0.0000      
VIRIAL 
Total     = -7136.2974    Constraint= 0.0000      
VDW       = -7136.2974    QQ        = 0.0000        Bond      = 0.0000      
BondAngle = 0.0000        Torsion   = 0.0000        Tether    = 0.0000      

--------------------------------------------------------------------------------

Step 4000	 Instantaneous Values
System
Temperature(K) = 240.5000    
Pressure(kbar) = 81.8474     
ConservedQty   = -894.7179   
ENERGY 
Total     = -916.9511     Kinetic   = 1532.7240     Potential = -2449.6751  
VDW       = -2449.6751    QQ        = 0.0000        Bond      = 0.0000      
BondAngle = 0.0000        Torsion   = 0.0000        Tether    = 0.0000      
VIRIAL 
Total     = -6526.7866    Constraint= 0.0000      
VDW       = -6526.7866    QQ        = 0.0000        Bond      = 0.0000      
BondAngle = 0.0000        Torsion   = 0.0000        Tether    = 0.0000      

--------------------------------------------------------------------------------

Step 4100	 Instantaneous Values
System
Temperature(K) = 240.5000    
Pressure(kbar) = 94.1201     
ConservedQty   = -828.4219   
ENERGY 
Total     = -846.6694     Kinetic   = 1532.7240     Potential = -2379.3934  
VDW       = -2379.3934    QQ        = 0.0000        Bond      = 0.0000      
BondAngle = 0.0000        Torsion   = 0.0000        Tether    = 0.0000      
VIRIAL 
Total     = -7965.1133    Constraint= 0.0000      
VDW       = -7965.1133    QQ        = 0.0000        Bond      = 0.0000      
BondAngle = 0.0000        Torsion   = 0.0000        Tether    = 0.0000      

--------------------------------------------------------------------------------

Step 4200	 Instantaneous Values
System
Temperature(K) = 240.5000    
Pressure(kbar) = 88.0080     
ConservedQty   = -871.2702   
ENERGY 
Total     = -888.6081     Kinetic   = 1532.7240     Potential = -2421.3322  
VDW       = -2421.3322    QQ        = 0.0000        Bond      = 0.0000      
BondAngle = 0.0000        Torsion   = 0.0000        Tether    = 0.0000      
VIRIAL 
Total     = -7248.7934    Constraint= 0.0000      
VDW       = -7248.7934    QQ        = 0.0000        Bond      = 0.0000      
BondAngle = 0.0000        Torsion   = 0.0000        Tether    = 0.0000      

--------------------------------------------------------------------------------

Step 4300	 Instantaneous Values
System
Temperature(K) = 240.5000    
Pressure(kbar) = 89.1296     
ConservedQty   = -860.6226   
ENERGY 
Total     = -880.1390     Kinetic   = 1532.7240     Potential = -2412.8630  
VDW       = -2412.8630    QQ        = 0.0000        Bond      = 0.0000      
BondAngle = 0.0000        Torsion   = 0.0000        Tether    = 0.0000      
VIRIAL 
Total     = -7380.2385    Constraint= 0.0000      
VDW       = -7380.2385    QQ        = 0.0000        Bond      = 0.0000      
BondAngle = 0.0000        Torsion   = 0.0000        Tether    = 0.0000      

--------------------------------------------------------------------------------

Step 4400	 Instantaneous Values
System
Temperature(K) = 240.5000    
Pressure(kbar) = 85.4257     
ConservedQty   = -894.7220   
ENERGY 
Total     = -912.9650     Kinetic   = 1532.7240     Potential = -2445.6890  
VDW       = -2445.6890    QQ        = 0.0000        Bond      = 0.0000      
BondAngle = 0.0000        Torsion   = 0.0000        Tether    = 0.0000      
VIRIAL 
Total     = -6946.1588    Constraint= 0.0000      
VDW       = -6946.1588    QQ        = 0.0000        Bond      = 0.0000      
BondAngle = 0.0000        Torsion   = 0.0000        Tether    = 0.0000      

--------------------------------------------------------------------------------

Step 4500	 Instantaneous Values
System
Temperature(K) = 240.5000    
Pressure(kbar) = 89.3035     
ConservedQty   = -864.5378   
ENERGY 
Total     = -880.3437     Kinetic   = 1532.7240     Potential = -2413.0677  
VDW       = -2413.0677    QQ        = 0.0000        Bond      = 0.0000      
BondAngle = 0.0000        Torsion   = 0.0000        Tether    = 0.0000      
VIRIAL 
Total     = -7400.6252    Constraint= 0.0000      
VDW       = -7400.6252    QQ        = 0.0000        Bond      = 0.0000      
BondAngle = 0.0000        Torsion   = 0.0000        Tether    = 0.0000      

--------------------------------------------------------------------------------

Step 4600	 Instantaneous Values
System
Temperature(K) = 240.5000    
Pressure(kbar) = 84.7274     
ConservedQty   = -894.1447   
ENERGY 
Total     = -910.1733     Kinetic   = 1532.7240     Potential = -2442.8973  
VDW       = -2442.8973    QQ        = 0.0000        Bond      = 0.0000      
BondAngle = 0.0000        Torsion   = 0.0000        Tether    = 0.0000      
VIRIAL 
Total     = -6864.3160    Constraint= 0.0000      
VDW       = -6864.3160    QQ        = 0.0000        Bond      = 0.0000      
BondAngle = 0.0000        Torsion   = 0.0000        Tether    = 0.0000      

--------------------------------------------------------------------------------

Step 4700	 Instantaneous Values
System
Temperature(K) = 240.5000    
Pressure(kbar) = 72.9022     
ConservedQty   = -975.5069   
ENERGY 
Total     = -992.8993     Kinetic   = 1532.7240     Potential = -2525.6233  
VDW       = -2525.6233    QQ        = 0.0000        Bond      = 0.0000      
BondAngle = 0.0000        Torsion   = 0.0000        Tether    = 0.0000      
VIRIAL 
Total     = -5478.4480    Constraint= 0.0000      
VDW       = -5478.4480    QQ        = 0.0000        Bond      = 0.0000      
BondAngle = 0.0000        Torsion   = 0.0000        Tether    = 0.0000      

--------------------------------------------------------------------------------

Step 4800	 Instantaneous Values
System
Temperature(K) = 240.5000    
Pressure(kbar) = 85.0185     
ConservedQty   = -895.6344   
ENERGY 
Total     = -907.8193     Kinetic   = 1532.7240     Potential = -2440.5433  
VDW       = -2440.5433    QQ        = 0.0000        Bond      = 0.0000      
BondAngle = 0.0000        Torsion   = 0.0000        Tether    = 0.0000      
VIRIAL 
Total     = -6898.4281    Constraint= 0.0000      
VDW       = -6898.4281    QQ        = 0.0000        Bond      = 0.0000      
BondAngle = 0.0000        Torsion   = 0.0000        Tether    = 0.0000      

--------------------------------------------------------------------------------

Step 4900	 Instantaneous Values
System
Temperature(K) = 240.5000    
Pressure(kbar) = 86.3217     
ConservedQty   = -892.3205   
ENERGY 
Total     = -902.3843     Kinetic   = 1532.7240     Potential = -2435.1083  
VDW       = -2435.1083    QQ        = 0.0000        Bond      = 0.0000      
BondAngle = 0.0000        Torsion   = 0.0000        Tether    = 0.0000      
VIRIAL 
Total     = -7051.1632    Constraint= 0.0000      
VDW       = -7051.1632    QQ        = 0.0000        Bond      = 0.0000      
BondAngle = 0.0000        Torsion   = 0.0000        Tether    = 0.0000      

--------------------------------------------------------------------------------

Step 5000	 Instantaneous Values
System
Temperature(K) = 240.5000    
Pressure(kbar) = 85.0612     
ConservedQty   = -898.6330   
ENERGY 
Total     = -907.3137     Kinetic   = 1532.7240     Potential = -2440.0377  
VDW       = -2440.0377    QQ        = 0.0000        Bond      = 0.0000      
BondAngle = 0.0000        Torsion   = 0.0000        Tether    = 0.0000      
VIRIAL 
Total     = -6903.4325    Constraint= 0.0000      
VDW       = -6903.4325    QQ        = 0.0000        Bond      = 0.0000      
BondAngle = 0.0000        Torsion   = 0.0000        Tether    = 0.0000      

--------------------------------------------------------------------------------

Step 5100	 Instantaneous Values
System
Temperature(K) = 240.5000    
Pressure(kbar) = 88.1103     
ConservedQty   = -875.3522   
ENERGY 
Total     = -880.6276     Kinetic   = 1532.7240     Potential = -2413.3516  
VDW       = -2413.3516    QQ        = 0.0000        Bond      = 0.0000      
BondAngle = 0.0000        Torsion   = 0.0000        Tether    = 0.0000      
VIRIAL 
Total     = -7260.7813    Constraint= 0.0000      
VDW       = -7260.7813    QQ        = 0.0000        Bond      = 0.0000      
BondAngle = 0.0000        Torsion   = 0.0000        Tether    = 0.0000      

--------------------------------------------------------------------------------

Step 5200	 Instantaneous Values
System
Temperature(K) = 240.5000    
Pressure(kbar) = 82.2035     
ConservedQty   = -921.5967   
ENERGY 
Total     = -928.1308     Kinetic   = 1532.7240     Potential = -2460.8548  
VDW       = -2460.8548    QQ        = 0.0000        Bond      = 0.0000      
BondAngle = 0.0000        Torsion   = 0.0000        Tether    = 0.0000      
VIRIAL 
Total     = -6568.5242    Constraint= 0.0000      
VDW       = -6568.5242    QQ        = 0.0000        Bond      = 0.0000      
BondAngle = 0.0000        Torsion   = 0.0000        Tether    = 0.0000      

--------------------------------------------------------------------------------

Step 5300	 Instantaneous Values
System
Temperature(K) = 240.5000    
Pressure(kbar) = 89.1453     
ConservedQty   = -881.6735   
ENERGY 
Total     = -885.3096     Kinetic   = 1532.7240     Potential = -2418.0336  
VDW       = -2418.0336    QQ        = 0.0000        Bond      = 0.0000      
BondAngle = 0.0000        Torsion   = 0.0000        Tether    = 0.0000      
VIRIAL 
Total     = -7382.0798    Constraint= 0.0000      
VDW       = -7382.0798    QQ        = 0.0000        Bond      = 0.0000      
BondAngle = 0.0000        Torsion   = 0.0000        Tether    = 0.0000      

--------------------------------------------------------------------------------

Step 5400	 Instantaneous Values
System
Temperature(K) = 240.5000    
Pressure(kbar) = 85.7908     
ConservedQty   = -905.5028   
ENERGY 
Total     = -911.1043     Kinetic   = 1532.7240     Potential = -2443.8283  
VDW       = -2443.8283    QQ        = 0.0000        Bond      = 0.0000      
BondAngle = 0.0000        Torsion   = 0.0000        Tether    = 0.0000      
VIRIAL 
Total     = -6988.9405    Constraint= 0.0000      
VDW       = -6988.9405    QQ        = 0.0000        Bond      = 0.0000      
BondAngle = 0.0000        Torsion   = 0.0000        Tether    = 0.0000      

--------------------------------------------------------------------------------

Step 5500	 Instantaneous Values
System
Temperature(K) = 240.5000    
Pressure(kbar) = 90.7744     
ConservedQty   = -854.4589   
ENERGY 
Total     = -861.6819     Kinetic   = 1532.7240     Potential = -2394.4059  
VDW       = -2394.4059    QQ        = 0.0000        Bond      = 0.0000      
BondAngle = 0.0000        Torsion   = 0.0000        Tether    = 0.0000      
VIRIAL 
Total     = -7573.0059    Constraint= 0.0000      
VDW       = -7573.0059    QQ        = 0.0000        Bond      = 0.0000      
BondAngle = 0.0000        Torsion   = 0.0000        Tether    = 0.0000      

--------------------------------------------------------------------------------

Step 5600	 Instantaneous Values
System
Temperature(K) = 240.5000    
Pressure(kbar) = 82.5404     
ConservedQty   = -927.6445   
ENERGY 
Total     = -939.9885     Kinetic   = 1532.7240     Potential = -2472.7125  
VDW       = -2472.7125    QQ        = 0.0000        Bond      = 0.0000      
BondAngle = 0.0000        Torsion   = 0.0000        Tether    = 0.0000      
VIRIAL 
Total     = -6608.0097    Constraint= 0.0000      
VDW       = -6608.0097    QQ        = 0.0000        Bond      = 0.0000      
BondAngle = 0.0000        Torsion   = 0.0000        Tether    = 0.0000      

--------------------------------------------------------------------------------

Step 5700	 Instantaneous Values
System
Temperature(K) = 240.5000    
Pressure(kbar) = 94.8415     
ConservedQty   = -835.5170   
ENERGY 
Total     = -844.0693     Kinetic   = 1532.7240     Potential = -2376.7933  
VDW       = -2376.7933    QQ        = 0.0000        Bond      = 0.0000      
BondAngle = 0.0000        Torsion   = 0.0000        Tether    = 0.0000      
VIRIAL 
Total     = -8049.6587    Constraint= 0.0000      
VDW       = -8049.6587    QQ        = 0.0000        Bond      = 0.0000      
BondAngle = 0.0000        Torsion   = 0.0000        Tether    = 0.0000      

--------------------------------------------------------------------------------

Step 5800	 Instantaneous Values
System
Temperature(K) = 240.5000    
Pressure(kbar) = 90.6325     
ConservedQty   = -859.2785   
ENERGY 
Total     = -872.0909     Kinetic   = 1532.7240     Potential = -2404.8149  
VDW       = -2404.8149    QQ        = 0.0000        Bond      = 0.0000      
BondAngle = 0.0000        Torsion   = 0.0000        Tether    = 0.0000      
VIRIAL 
Total     = -7556.3711    Constraint= 0.0000      
VDW       = -7556.3711    QQ        = 0.0000        Bond      = 0.0000      
BondAngle = 0.0000        Torsion   = 0.0000        Tether    = 0.0000      

--------------------------------------------------------------------------------

Step 5900	 Instantaneous Values
System
Temperature(K) = 240.5000    
Pressure(kbar) = 74.2871     
ConservedQty   = -967.1383   
ENERGY 
Total     = -983.1030     Kinetic   = 1532.7240     Potential = -2515.8271  
VDW       = -2515.8271    QQ        = 0.0000        Bond      = 0.0000      
BondAngle = 0.0000        Torsion   = 0.0000        Tether    = 0.0000      
VIRIAL 
Total     = -5640.7435    Constraint= 0.0000      
VDW       = -5640.7435    QQ        = 0.0000        Bond      = 0.0000      
BondAngle = 0.0000        Torsion   = 0.0000        Tether    = 0.0000      

--------------------------------------------------------------------------------

Step 6000	 Instantaneous Values
System
Temperature(K) = 240.5000    
Pressure(kbar) = 82.0914     
ConservedQty   = -920.9974   
ENERGY 
Total     = -936.0945     Kinetic   = 1532.7240     Potential = -2468.8185  
VDW       = -2468.8185    QQ        = 0.0000        Bond      = 0.0000      
BondAngle = 0.0000        Torsion   = 0.0000        Tether    = 0.0000      
VIRIAL 
Total     = -6555.3861    Constraint= 0.0000      
VDW       = -6555.3861    QQ        = 0.0000        Bond      = 0.0000      
BondAngle = 0.0000        Torsion   = 0.0000        Tether    = 0.0000      

--------------------------------------------------------------------------------

Step 6100	 Instantaneous Values
System
Temperature(K) = 240.5000    
Pressure(kbar) = 85.4240     
ConservedQty   = -889.3612   
ENERGY 
Total     = -904.3655     Kinetic   = 1532.7240     Potential = -2437.0895  
VDW       = -2437.0895    QQ        = 0.0000        Bond      = 0.0000      
BondAngle = 0.0000        Torsion   = 0.0000        Tether    = 0.0000      
VIRIAL 
Total     = -6945.9594    Constraint= 0.0000      
VDW       = -6945.9594    QQ        = 0.0000        Bond      = 0.0000      
BondAngle = 0.0000        Torsion   = 0.0000        Tether    = 0.0000      

--------------------------------------------------------------------------------

Step 6200	 Instantaneous Values
System
Temperature(K) = 240.5000    
Pressure(kbar) = 86.7809     
ConservedQty   = -887.9608   
ENERGY 
Total     = -901.7424     Kinetic   = 1532.7240     Potential = -2434.4664  
VDW       = -2434.4664    QQ        = 0.0000        Bond      = 0.0000      
BondAngle = 0.0000        Torsion   = 0.0000        Tether    = 0.0000      
VIRIAL 
Total     = -7104.9800    Constraint= 0.0000      
VDW       = -7104.9800    QQ        = 0.0000        Bond      = 0.0000      
BondAngle = 0.0000        Torsion   = 0.0000        Tether    = 0.0000      

--------------------------------------------------------------------------------

Step 6300	 Instantaneous Values
System
Temperature(K) = 240.5000    
Pressure(kbar) = 91.3695     
ConservedQty   = -859.3634   
ENERGY 
Total     = -874.5841     Kinetic   = 1532.7240     Potential = -2407.3081  
VDW       = -2407.3081    QQ        = 0.0000        Bond      = 0.0000      
BondAngle = 0.0000        Torsion   = 0.0000        Tether    = 0.0000      
VIRIAL 
Total     = -7642.7514    Constraint= 0.0000      
VDW       = -7642.7514    QQ        = 0.0000        Bond      = 0.0000      
BondAngle = 0.0000        Torsion   = 0.0000        Tether    = 0.0000      

--------------------------------------------------------------------------------

Step 6400	 Instantaneous Values
System
Temperature(K) = 240.5000    
Pressure(kbar) = 84.0358     
ConservedQty   = -904.0721   
ENERGY 
Total     = -922.4573     Kinetic   = 1532.7240     Potential = -2455.1813  
VDW       = -2455.1813    QQ        = 0.0000        Bond      = 0.0000      
BondAngle = 0.0000        Torsion   = 0.0000        Tether    = 0.0000      
VIRIAL 
Total     = -6783.2578    Constraint= 0.0000      
VDW       = -6783.2578    QQ        = 0.0000        Bond      = 0.0000      
BondAngle = 0.0000        Torsion   = 0.0000        Tether    = 0.0000      

--------------------------------------------------------------------------------

Step 6500	 Instantaneous Values
System
Temperature(K) = 240.5000    
Pressure(kbar) = 91.4333     
ConservedQty   = -871.6585   
ENERGY 
Total     = -888.7927     Kinetic   = 1532.7240     Potential = -2421.5167  
VDW       = -2421.5167    QQ        = 0.0000        Bond      = 0.0000      
BondAngle = 0.0000        Torsion   = 0.0000        Tether    = 0.0000      
VIRIAL 
Total     = -7650.2217    Constraint= 0.0000      
VDW       = -7650.2217    QQ        = 0.0000        Bond      = 0.0000      
BondAngle = 0.0000        Torsion   = 0.0000        Tether    = 0.0000      

--------------------------------------------------------------------------------

Step 6600	 Instantaneous Values
System
Temperature(K) = 240.5000    
Pressure(kbar) = 84.8694     
ConservedQty   = -896.7163   
ENERGY 
Total     = -915.6952     Kinetic   = 1532.7240     Potential = -2448.4193  
VDW       = -2448.4193    QQ        = 0.0000        Bond      = 0.0000      
BondAngle = 0.0000        Torsion   = 0.0000        Tether    = 0.0000      
VIRIAL 
Total     = -6880.9583    Constraint= 0.0000      
VDW       = -6880.9583    QQ        = 0.0000        Bond      = 0.0000      
BondAngle = 0.0000        Torsion   = 0.0000        Tether    = 0.0000      

--------------------------------------------------------------------------------

Step 6700	 Instantaneous Values
System
Temperature(K) = 240.5000    
Pressure(kbar) = 88.7425     
ConservedQty   = -868.5326   
ENERGY 
Total     = -888.4119     Kinetic   = 1532.7240     Potential = -2421.1359  
VDW       = -2421.1359    QQ        = 0.0000        Bond      = 0.0000      
BondAngle = 0.0000        Torsion   = 0.0000        Tether    = 0.0000      
VIRIAL 
Total     = -7334.8678    Constraint= 0.0000      
VDW       = -7334.8678    QQ        = 0.0000        Bond      = 0.0000      
BondAngle = 0.0000        Torsion   = 0.0000        Tether    = 0.0000      

--------------------------------------------------------------------------------

Step 6800	 Instantaneous Values
System
Temperature(K) = 240.5000    
Pressure(kbar) = 86.0476     
ConservedQty   = -896.3003   
ENERGY 
Total     = -915.1530     Kinetic   = 1532.7240     Potential = -2447.8770  
VDW       = -2447.8770    QQ        = 0.0000        Bond      = 0.0000      
BondAngle = 0.0000        Torsion   = 0.0000        Tether    = 0.0000      
VIRIAL 
Total     = -7019.0426    Constraint= 0.0000      
VDW       = -7019.0426    QQ        = 0.0000        Bond      = 0.0000      
BondAngle = 0.0000        Torsion   = 0.0000        Tether    = 0.0000      

--------------------------------------------------------------------------------

Step 6900	 Instantaneous Values
System
Temperature(K) = 240.5000    
Pressure(kbar) = 90.2809     
ConservedQty   = -856.3682   
ENERGY 
Total     = -868.9891     Kinetic   = 1532.7240     Potential = -2401.7131  
VDW       = -2401.7131    QQ        = 0.0000        Bond      = 0.0000      
BondAngle = 0.0000        Torsion   = 0.0000        Tether    = 0.0000      
VIRIAL 
Total     = -7515.1641    Constraint= 0.0000      
VDW       = -7515.1641    QQ        = 0.0000        Bond      = 0.0000      
BondAngle = 0.0000        Torsion   = 0.0000        Tether    = 0.0000      

--------------------------------------------------------------------------------

Step 7000	 Instantaneous Values
System
Temperature(K) = 240.5000    
Pressure(kbar) = 92.4897     
ConservedQty   = -846.7745   
ENERGY 
Total     = -860.7029     Kinetic   = 1532.7240     Potential = -2393.4270  
VDW       = -2393.4270    QQ        = 0.0000        Bond      = 0.0000      
BondAngle = 0.0000        Torsion   = 0.0000        Tether    = 0.0000      
VIRIAL 
Total     = -7774.0273    Constraint= 0.0000      
VDW       = -7774.0273    QQ        = 0.0000        Bond      = 0.0000      
BondAngle = 0.0000        Torsion   = 0.0000        Tether    = 0.0000      

--------------------------------------------------------------------------------

Step 7100	 Instantaneous Values
System
Temperature(K) = 240.5000    
Pressure(kbar) = 86.8113     
ConservedQty   = -881.2312   
ENERGY 
Total     = -900.1620     Kinetic   = 1532.7240     Potential = -2432.8860  
VDW       = -2432.8860    QQ        = 0.0000        Bond      = 0.0000      
BondAngle = 0.0000        Torsion   = 0.0000        Tether    = 0.0000      
VIRIAL 
Total     = -7108.5423    Constraint= 0.0000      
VDW       = -7108.5423    QQ        = 0.0000        Bond      = 0.0000      
BondAngle = 0.0000        Torsion   = 0.0000        Tether    = 0.0000      

--------------------------------------------------------------------------------

Step 7200	 Instantaneous Values
System
Temperature(K) = 240.5000    
Pressure(kbar) = 81.7045     
ConservedQty   = -907.3493   
ENERGY 
Total     = -926.9484     Kinetic   = 1532.7240     Potential = -2459.6724  
VDW       = -2459.6724    QQ        = 0.0000        Bond      = 0.0000      
BondAngle = 0.0000        Torsion   = 0.0000        Tether    = 0.0000      
VIRIAL 
Total     = -6510.0477    Constraint= 0.0000      
VDW       = -6510.0477    QQ        = 0.0000        Bond      = 0.0000      
BondAngle = 0.0000        Torsion   = 0.0000        Tether    = 0.0000      

--------------------------------------------------------------------------------

Step 7300	 Instantaneous Values
System
Temperature(K) = 240.5000    
Pressure(kbar) = 83.1155     
ConservedQty   = -909.3708   
ENERGY 
Total     = -925.2027     Kinetic   = 1532.7240     Potential = -2457.9267  
VDW       = -2457.9267    QQ        = 0.0000        Bond      = 0.0000      
BondAngle = 0.0000        Torsion   = 0.0000        Tether    = 0.0000      
VIRIAL 
Total     = -6675.4062    Constraint= 0.0000      
VDW       = -6675.4062    QQ        = 0.0000        Bond      = 0.0000      
BondAngle = 0.0000        Torsion   = 0.0000        Tether    = 0.0000      

--------------------------------------------------------------------------------

Step 7400	 Instantaneous Values
System
Temperature(K) = 240.5000    
Pressure(kbar) = 85.6024     
ConservedQty   = -886.8683   
ENERGY 
Total     = -902.1074     Kinetic   = 1532.7240     Potential = -2434.8315  
VDW       = -2434.8315    QQ        = 0.0000        Bond      = 0.0000      
BondAngle = 0.0000        Torsion   = 0.0000        Tether    = 0.0000      
VIRIAL 
Total     = -6966.8631    Constraint= 0.0000      
VDW       = -6966.8631    QQ        = 0.0000        Bond      = 0.0000      
BondAngle = 0.0000        Torsion   = 0.0000        Tether    = 0.0000      

--------------------------------------------------------------------------------

Step 7500	 Instantaneous Values
System
Temperature(K) = 240.5000    
Pressure(kbar) = 92.0749     
ConservedQty   = -840.0333   
ENERGY 
Total     = -855.5958     Kinetic   = 1532.7240     Potential = -2388.3198  
VDW       = -2388.3198    QQ        = 0.0000        Bond      = 0.0000      
BondAngle = 0.0000        Torsion   = 0.0000        Tether    = 0.0000      
VIRIAL 
Total     = -7725.4195    Constraint= 0.0000      
VDW       = -7725.4195    QQ        = 0.0000        Bond      = 0.0000      
BondAngle = 0.0000        Torsion   = 0.0000        Tether    = 0.0000      

--------------------------------------------------------------------------------

Step 7600	 Instantaneous Values
System
Temperature(K) = 240.5000    
Pressure(kbar) = 90.6324     
ConservedQty   = -862.2457   
ENERGY 
Total     = -875.9104     Kinetic   = 1532.7240     Potential = -2408.6344  
VDW       = -2408.6344    QQ        = 0.0000        Bond      = 0.0000      
BondAngle = 0.0000        Torsion   = 0.0000        Tether    = 0.0000      
VIRIAL 
Total     = -7556.3617    Constraint= 0.0000      
VDW       = -7556.3617    QQ        = 0.0000        Bond      = 0.0000      
BondAngle = 0.0000        Torsion   = 0.0000        Tether    = 0.0000      

--------------------------------------------------------------------------------

Step 7700	 Instantaneous Values
System
Temperature(K) = 240.5000    
Pressure(kbar) = 90.5133     
ConservedQty   = -868.2326   
ENERGY 
Total     = -882.1092     Kinetic   = 1532.7240     Potential = -2414.8332  
VDW       = -2414.8332    QQ        = 0.0000        Bond      = 0.0000      
BondAngle = 0.0000        Torsion   = 0.0000        Tether    = 0.0000      
VIRIAL 
Total     = -7542.4041    Constraint= 0.0000      
VDW       = -7542.4041    QQ        = 0.0000        Bond      = 0.0000      
BondAngle = 0.0000        Torsion   = 0.0000        Tether    = 0.0000      

--------------------------------------------------------------------------------

Step 7800	 Instantaneous Values
System
Temperature(K) = 240.5000    
Pressure(kbar) = 76.7309     
ConservedQty   = -953.5278   
ENERGY 
Total     = -967.7399     Kinetic   = 1532.7240     Potential = -2500.4639  
VDW       = -2500.4639    QQ        = 0.0000        Bond      = 0.0000      
BondAngle = 0.0000        Torsion   = 0.0000        Tether    = 0.0000      
VIRIAL 
Total     = -5927.1548    Constraint= 0.0000      
VDW       = -5927.1548    QQ        = 0.0000        Bond      = 0.0000      
BondAngle = 0.0000        Torsion   = 0.0000        Tether    = 0.0000      

--------------------------------------------------------------------------------

Step 7900	 Instantaneous Values
System
Temperature(K) = 240.5000    
Pressure(kbar) = 87.3628     
ConservedQty   = -882.6536   
ENERGY 
Total     = -893.3424     Kinetic   = 1532.7240     Potential = -2426.0664  
VDW       = -2426.0664    QQ        = 0.0000        Bond      = 0.0000      
BondAngle = 0.0000        Torsion   = 0.0000        Tether    = 0.0000      
VIRIAL 
Total     = -7173.1725    Constraint= 0.0000      
VDW       = -7173.1725    QQ        = 0.0000        Bond      = 0.0000      
BondAngle = 0.0000        Torsion   = 0.0000        Tether    = 0.0000      

--------------------------------------------------------------------------------

Step 8000	 Instantaneous Values
System
Temperature(K) = 240.5000    
Pressure(kbar) = 80.4338     
ConservedQty   = -941.2770   
ENERGY 
Total     = -953.3219     Kinetic   = 1532.7240     Potential = -2486.0459  
VDW       = -2486.0459    QQ        = 0.0000        Bond      = 0.0000      
BondAngle = 0.0000        Torsion   = 0.0000        Tether    = 0.0000      
VIRIAL 
Total     = -6361.1223    Constraint= 0.0000      
VDW       = -6361.1223    QQ        = 0.0000        Bond      = 0.0000      
BondAngle = 0.0000        Torsion   = 0.0000        Tether    = 0.0000      

--------------------------------------------------------------------------------

Step 8100	 Instantaneous Values
System
Temperature(K) = 240.5000    
Pressure(kbar) = 92.2626     
ConservedQty   = -854.5976   
ENERGY 
Total     = -865.5184     Kinetic   = 1532.7240     Potential = -2398.2424  
VDW       = -2398.2424    QQ        = 0.0000        Bond      = 0.0000      
BondAngle = 0.0000        Torsion   = 0.0000        Tether    = 0.0000      
VIRIAL 
Total     = -7747.4135    Constraint= 0.0000      
VDW       = -7747.4135    QQ        = 0.0000        Bond      = 0.0000      
BondAngle = 0.0000        Torsion   = 0.0000        Tether    = 0.0000      

--------------------------------------------------------------------------------

Step 8200	 Instantaneous Values
System
Temperature(K) = 240.5000    
Pressure(kbar) = 87.6643     
ConservedQty   = -872.0663   
ENERGY 
Total     = -887.6134     Kinetic   = 1532.7240     Potential = -2420.3375  
VDW       = -2420.3375    QQ        = 0.0000        Bond      = 0.0000      
BondAngle = 0.0000        Torsion   = 0.0000        Tether    = 0.0000      
VIRIAL 
Total     = -7208.5114    Constraint= 0.0000      
VDW       = -7208.5114    QQ        = 0.0000        Bond      = 0.0000      
BondAngle = 0.0000        Torsion   = 0.0000        Tether    = 0.0000      

--------------------------------------------------------------------------------

Step 8300	 Instantaneous Values
System
Temperature(K) = 240.5000    
Pressure(kbar) = 97.0378     
ConservedQty   = -813.4538   
ENERGY 
Total     = -829.5863     Kinetic   = 1532.7240     Potential = -2362.3103  
VDW       = -2362.3103    QQ        = 0.0000        Bond      = 0.0000      
BondAngle = 0.0000        Torsion   = 0.0000        Tether    = 0.0000      
VIRIAL 
Total     = -8307.0585    Constraint= 0.0000      
VDW       = -8307.0585    QQ        = 0.0000        Bond      = 0.0000      
BondAngle = 0.0000        Torsion   = 0.0000        Tether    = 0.0000      

--------------------------------------------------------------------------------

Step 8400	 Instantaneous Values
System
Temperature(K) = 240.5000    
Pressure(kbar) = 90.4304     
ConservedQty   = -860.0064   
ENERGY 
Total     = -877.9757     Kinetic   = 1532.7240     Potential = -2410.6997  
VDW       = -2410.6997    QQ        = 0.0000        Bond      = 0.0000      
BondAngle = 0.0000        Torsion   = 0.0000        Tether    = 0.0000      
VIRIAL 
Total     = -7532.6876    Constraint= 0.0000      
VDW       = -7532.6876    QQ        = 0.0000        Bond      = 0.0000      
BondAngle = 0.0000        Torsion   = 0.0000        Tether    = 0.0000      

--------------------------------------------------------------------------------

Step 8500	 Instantaneous Values
System
Temperature(K) = 240.5000    
Pressure(kbar) = 91.4483     
ConservedQty   = -847.8637   
ENERGY 
Total     = -865.4749     Kinetic   = 1532.7240     Potential = -2398.1989  
VDW       = -2398.1989    QQ        = 0.0000        Bond      = 0.0000      
BondAngle = 0.0000        Torsion   = 0.0000        Tether    = 0.0000      
VIRIAL 
Total     = -7651.9877    Constraint= 0.0000      
VDW       = -7651.9877    QQ        = 0.0000        Bond      = 0.0000      
BondAngle = 0.0000        Torsion   = 0.0000        Tether    = 0.0000      

--------------------------------------------------------------------------------

Step 8600	 Instantaneous Values
System
Temperature(K) = 240.5000    
Pressure(kbar) = 75.8058     
ConservedQty   = -959.5057   
ENERGY 
Total     = -980.1584     Kinetic   = 1532.7240     Potential = -2512.8824  
VDW       = -2512.8824    QQ        = 0.0000        Bond      = 0.0000      
BondAngle = 0.0000        Torsion   = 0.0000        Tether    = 0.0000      
VIRIAL 
Total     = -5818.7336    Constraint= 0.0000      
VDW       = -5818.7336    QQ        = 0.0000        Bond      = 0.0000      
BondAngle = 0.0000        Torsion   = 0.0000        Tether    = 0.0000      

--------------------------------------------------------------------------------

Step 8700	 Instantaneous Values
System
Temperature(K) = 240.5000    
Pressure(kbar) = 84.0579     
ConservedQty   = -909.1699   
ENERGY 
Total     = -928.4478     Kinetic   = 1532.7240     Potential = -2461.1718  
VDW       = -2461.1718    QQ        = 0.0000        Bond      = 0.0000      
BondAngle = 0.0000        Torsion   = 0.0000        Tether    = 0.0000      
VIRIAL 
Total     = -6785.8549    Constraint= 0.0000      
VDW       = -6785.8549    QQ        = 0.0000        Bond      = 0.0000      
BondAngle = 0.0000        Torsion   = 0.0000        Tether    = 0.0000      

--------------------------------------------------------------------------------

Step 8800	 Instantaneous Values
System
Temperature(K) = 240.5000    
Pressure(kbar) = 89.0432     
ConservedQty   = -851.6436   
ENERGY 
Total     = -873.6070     Kinetic   = 1532.7240     Potential = -2406.3310  
VDW       = -2406.3310    QQ        = 0.0000        Bond      = 0.0000      
BondAngle = 0.0000        Torsion   = 0.0000        Tether    = 0.0000      
VIRIAL 
Total     = -7370.1102    Constraint= 0.0000      
VDW       = -7370.1102    QQ        = 0.0000        Bond      = 0.0000      
BondAngle = 0.0000        Torsion   = 0.0000        Tether    = 0.0000      

--------------------------------------------------------------------------------

Step 8900	 Instantaneous Values
System
Temperature(K) = 240.5000    
Pressure(kbar) = 88.3447     
ConservedQty   = -865.2693   
ENERGY 
Total     = -886.9044     Kinetic   = 1532.7240     Potential = -2419.6284  
VDW       = -2419.6284    QQ        = 0.0000        Bond      = 0.0000      
BondAngle = 0.0000        Torsion   = 0.0000        Tether    = 0.0000      
VIRIAL 
Total     = -7288.2471    Constraint= 0.0000      
VDW       = -7288.2471    QQ        = 0.0000        Bond      = 0.0000      
BondAngle = 0.0000        Torsion   = 0.0000        Tether    = 0.0000      

--------------------------------------------------------------------------------

Step 9000	 Instantaneous Values
System
Temperature(K) = 240.5000    
Pressure(kbar) = 83.3544     
ConservedQty   = -901.9257   
ENERGY 
Total     = -925.0382     Kinetic   = 1532.7240     Potential = -2457.7622  
VDW       = -2457.7622    QQ        = 0.0000        Bond      = 0.0000      
BondAngle = 0.0000        Torsion   = 0.0000        Tether    = 0.0000      
VIRIAL 
Total     = -6703.4076    Constraint= 0.0000      
VDW       = -6703.4076    QQ        = 0.0000        Bond      = 0.0000      
BondAngle = 0.0000        Torsion   = 0.0000        Tether    = 0.0000      

--------------------------------------------------------------------------------

Step 9100	 Instantaneous Values
System
Temperature(K) = 240.5000    
Pressure(kbar) = 89.9147     
ConservedQty   = -856.8249   
ENERGY 
Total     = -877.5263     Kinetic   = 1532.7240     Potential = -2410.2503  
VDW       = -2410.2503    QQ        = 0.0000        Bond      = 0.0000      
BondAngle = 0.0000        Torsion   = 0.0000        Tether    = 0.0000      
VIRIAL 
Total     = -7472.2481    Constraint= 0.0000      
VDW       = -7472.2481    QQ        = 0.0000        Bond      = 0.0000      
BondAngle = 0.0000        Torsion   = 0.0000        Tether    = 0.0000      

--------------------------------------------------------------------------------

Step 9200	 Instantaneous Values
System
Temperature(K) = 240.5000    
Pressure(kbar) = 87.9897     
ConservedQty   = -873.7340   
ENERGY 
Total     = -894.5160     Kinetic   = 1532.7240     Potential = -2427.2400  
VDW       = -2427.2400    QQ        = 0.0000        Bond      = 0.0000      
BondAngle = 0.0000        Torsion   = 0.0000        Tether    = 0.0000      
VIRIAL 
Total     = -7246.6478    Constraint= 0.0000      
VDW       = -7246.6478    QQ        = 0.0000        Bond      = 0.0000      
BondAngle = 0.0000        Torsion   = 0.0000        Tether    = 0.0000      

--------------------------------------------------------------------------------

Step 9300	 Instantaneous Values
System
Temperature(K) = 240.5000    
Pressure(kbar) = 85.7001     
ConservedQty   = -896.6513   
ENERGY 
Total     = -918.0590     Kinetic   = 1532.7240     Potential = -2450.7830  
VDW       = -2450.7830    QQ        = 0.0000        Bond      = 0.0000      
BondAngle = 0.0000        Torsion   = 0.0000        Tether    = 0.0000      
VIRIAL 
Total     = -6978.3113    Constraint= 0.0000      
VDW       = -6978.3113    QQ        = 0.0000        Bond      = 0.0000      
BondAngle = 0.0000        Torsion   = 0.0000        Tether    = 0.0000      

--------------------------------------------------------------------------------

Step 9400	 Instantaneous Values
System
Temperature(K) = 240.5000    
Pressure(kbar) = 85.2691     
ConservedQty   = -893.2300   
ENERGY 
Total     = -912.0103     Kinetic   = 1532.7240     Potential = -2444.7344  
VDW       = -2444.7344    QQ        = 0.0000        Bond      = 0.0000      
BondAngle = 0.0000        Torsion   = 0.0000        Tether    = 0.0000      
VIRIAL 
Total     = -6927.7987    Constraint= 0.0000      
VDW       = -6927.7987    QQ        = 0.0000        Bond      = 0.0000      
BondAngle = 0.0000        Torsion   = 0.0000        Tether    = 0.0000      

--------------------------------------------------------------------------------

Step 9500	 Instantaneous Values
System
Temperature(K) = 240.5000    
Pressure(kbar) = 95.2808     
ConservedQty   = -826.4892   
ENERGY 
Total     = -840.4221     Kinetic   = 1532.7240     Potential = -2373.1462  
VDW       = -2373.1462    QQ        = 0.0000        Bond      = 0.0000      
BondAngle = 0.0000        Torsion   = 0.0000        Tether    = 0.0000      
VIRIAL 
Total     = -8101.1369    Constraint= 0.0000      
VDW       = -8101.1369    QQ        = 0.0000        Bond      = 0.0000      
BondAngle = 0.0000        Torsion   = 0.0000        Tether    = 0.0000      

--------------------------------------------------------------------------------

Step 9600	 Instantaneous Values
System
Temperature(K) = 240.5000    
Pressure(kbar) = 85.0084     
ConservedQty   = -904.8521   
ENERGY 
Total     = -920.1814     Kinetic   = 1532.7240     Potential = -2452.9054  
VDW       = -2452.9054    QQ        = 0.0000        Bond      = 0.0000      
BondAngle = 0.0000        Torsion   = 0.0000        Tether    = 0.0000      
VIRIAL 
Total     = -6897.2440    Constraint= 0.0000      
VDW       = -6897.2440    QQ        = 0.0000        Bond      = 0.0000      
BondAngle = 0.0000        Torsion   = 0.0000        Tether    = 0.0000      

--------------------------------------------------------------------------------

Step 9700	 Instantaneous Values
System
Temperature(K) = 240.5000    
Pressure(kbar) = 90.7873     
ConservedQty   = -863.2401   
ENERGY 
Total     = -877.3541     Kinetic   = 1532.7240     Potential = -2410.0781  
VDW       = -2410.0781    QQ        = 0.0000        Bond      = 0.0000      
BondAngle = 0.0000        Torsion   = 0.0000        Tether    = 0.0000      
VIRIAL 
Total     = -7574.5211    Constraint= 0.0000      
VDW       = -7574.5211    QQ        = 0.0000        Bond      = 0.0000      
BondAngle = 0.0000        Torsion   = 0.0000        Tether    = 0.0000      

--------------------------------------------------------------------------------

Step 9800	 Instantaneous Values
System
Temperature(K) = 240.5000    
Pressure(kbar) = 85.9721     
ConservedQty   = -884.7160   
ENERGY 
Total     = -899.3373     Kinetic   = 1532.7240     Potential = -2432.0613  
VDW       = -2432.0613    QQ        = 0.0000        Bond      = 0.0000      
BondAngle = 0.0000        Torsion   = 0.0000        Tether    = 0.0000      
VIRIAL 
Total     = -7010.1940    Constraint= 0.0000      
VDW       = -7010.1940    QQ        = 0.0000        Bond      = 0.0000      
BondAngle = 0.0000        Torsion   = 0.0000        Tether    = 0.0000      

--------------------------------------------------------------------------------

Step 9900	 Instantaneous Values
System
Temperature(K) = 240.5000    
Pressure(kbar) = 92.8647     
ConservedQty   = -842.1823   
ENERGY 
Total     = -855.5354     Kinetic   = 1532.7240     Potential = -2388.2594  
VDW       = -2388.2594    QQ        = 0.0000        Bond      = 0.0000      
BondAngle = 0.0000        Torsion   = 0.0000        Tether    = 0.0000      
VIRIAL 
Total     = -7817.9784    Constraint= 0.0000      
VDW       = -7817.9784    QQ        = 0.0000        Bond      = 0.0000      
BondAngle = 0.0000        Torsion   = 0.0000        Tether    = 0.0000      

--------------------------------------------------------------------------------

Step 10000	 Instantaneous Values
System
Temperature(K) = 240.5000    
Pressure(kbar) = 83.8417     
ConservedQty   = -887.8542   
ENERGY 
Total     = -901.6247     Kinetic   = 1532.7240     Potential = -2434.3487  
VDW       = -2434.3487    QQ        = 0.0000        Bond      = 0.0000      
BondAngle = 0.0000        Torsion   = 0.0000        Tether    = 0.0000      
VIRIAL 
Total     = -6760.5176    Constraint= 0.0000      
VDW       = -6760.5176    QQ        = 0.0000        Bond      = 0.0000      
BondAngle = 0.0000        Torsion   = 0.0000        Tether    = 0.0000      

--------------------------------------------------------------------------------

Step 10100	 Instantaneous Values
System
Temperature(K) = 238.5262    
Pressure(kbar) = 88.7104     
ConservedQty   = -887.6134   
ENERGY 
Total     = -898.8445     Kinetic   = 1520.1448     Potential = -2418.9893  
VDW       = -2418.9893    QQ        = 0.0000        Bond      = 0.0000      
BondAngle = 0.0000        Torsion   = 0.0000        Tether    = 0.0000      
VIRIAL 
Total     = -7356.2636    Constraint= 0.0000      
VDW       = -7356.2636    QQ        = 0.0000        Bond      = 0.0000      
BondAngle = 0.0000        Torsion   = 0.0000        Tether    = 0.0000      

MeanSquaredDisplacement
Species1
Atom 1: 0.34206 
--------------------------------------------------------------------------------

Step 10200	 Instantaneous Values
System
Temperature(K) = 250.1073    
Pressure(kbar) = 81.8962     
ConservedQty   = -887.1838   
ENERGY 
Total     = -870.5726     Kinetic   = 1593.9520     Potential = -2464.5246  
VDW       = -2464.5246    QQ        = 0.0000        Bond      = 0.0000      
BondAngle = 0.0000        Torsion   = 0.0000        Tether    = 0.0000      
VIRIAL 
Total     = -6410.0577    Constraint= 0.0000      
VDW       = -6410.0577    QQ        = 0.0000        Bond      = 0.0000      
BondAngle = 0.0000        Torsion   = 0.0000        Tether    = 0.0000      

MeanSquaredDisplacement
Species1
Atom 1: 0.721376 
--------------------------------------------------------------------------------

Step 10300	 Instantaneous Values
System
Temperature(K) = 235.5777    
Pressure(kbar) = 84.8841     
ConservedQty   = -887.7023   
ENERGY 
Total     = -955.6415     Kinetic   = 1501.3536     Potential = -2456.9951  
VDW       = -2456.9951    QQ        = 0.0000        Bond      = 0.0000      
BondAngle = 0.0000        Torsion   = 0.0000        Tether    = 0.0000      
VIRIAL 
Total     = -6945.4280    Constraint= 0.0000      
VDW       = -6945.4280    QQ        = 0.0000        Bond      = 0.0000      
BondAngle = 0.0000        Torsion   = 0.0000        Tether    = 0.0000      

MeanSquaredDisplacement
Species1
Atom 1: 1.16819 
--------------------------------------------------------------------------------

Step 10400	 Instantaneous Values
System
Temperature(K) = 249.5552    
Pressure(kbar) = 84.2023     
ConservedQty   = -888.1294   
ENERGY 
Total     = -854.3226     Kinetic   = 1590.4331     Potential = -2444.7557  
VDW       = -2444.7557    QQ        = 0.0000        Bond      = 0.0000      
BondAngle = 0.0000        Torsion   = 0.0000        Tether    = 0.0000      
VIRIAL 
Total     = -6687.3597    Constraint= 0.0000      
VDW       = -6687.3597    QQ        = 0.0000        Bond      = 0.0000      
BondAngle = 0.0000        Torsion   = 0.0000        Tether    = 0.0000      

MeanSquaredDisplacement
Species1
Atom 1: 1.52342 
--------------------------------------------------------------------------------

Step 10500	 Instantaneous Values
System
Temperature(K) = 232.1838    
Pressure(kbar) = 87.0319     
ConservedQty   = -888.1396   
ENERGY 
Total     = -936.5892     Kinetic   = 1479.7243     Potential = -2416.3136  
VDW       = -2416.3136    QQ        = 0.0000        Bond      = 0.0000      
BondAngle = 0.0000        Torsion   = 0.0000        Tether    = 0.0000      
VIRIAL 
Total     = -7240.3916    Constraint= 0.0000      
VDW       = -7240.3916    QQ        = 0.0000        Bond      = 0.0000      
BondAngle = 0.0000        Torsion   = 0.0000        Tether    = 0.0000      

MeanSquaredDisplacement
Species1
Atom 1: 2.00597 
--------------------------------------------------------------------------------

Step 10600	 Instantaneous Values
System
Temperature(K) = 238.5632    
Pressure(kbar) = 88.9267     
ConservedQty   = -887.1657   
ENERGY 
Total     = -902.5008     Kinetic   = 1520.3806     Potential = -2422.8814  
VDW       = -2422.8814    QQ        = 0.0000        Bond      = 0.0000      
BondAngle = 0.0000        Torsion   = 0.0000        Tether    = 0.0000      
VIRIAL 
Total     = -7381.1528    Constraint= 0.0000      
VDW       = -7381.1528    QQ        = 0.0000        Bond      = 0.0000      
BondAngle = 0.0000        Torsion   = 0.0000        Tether    = 0.0000      

MeanSquaredDisplacement
Species1
Atom 1: 2.41386 
--------------------------------------------------------------------------------

Step 10700	 Instantaneous Values
System
Temperature(K) = 240.7081    
Pressure(kbar) = 90.0654     
ConservedQty   = -887.7487   
ENERGY 
Total     = -872.7751     Kinetic   = 1534.0503     Potential = -2406.8255  
VDW       = -2406.8255    QQ        = 0.0000        Bond      = 0.0000      
BondAngle = 0.0000        Torsion   = 0.0000        Tether    = 0.0000      
VIRIAL 
Total     = -7487.2651    Constraint= 0.0000      
VDW       = -7487.2651    QQ        = 0.0000        Bond      = 0.0000      
BondAngle = 0.0000        Torsion   = 0.0000        Tether    = 0.0000      

MeanSquaredDisplacement
Species1
Atom 1: 2.71297 
--------------------------------------------------------------------------------

Step 10800	 Instantaneous Values
System
Temperature(K) = 239.3801    
Pressure(kbar) = 79.9410     
ConservedQty   = -887.7229   
ENERGY 
Total     = -963.6623     Kinetic   = 1525.5866     Potential = -2489.2489  
VDW       = -2489.2489    QQ        = 0.0000        Bond      = 0.0000      
BondAngle = 0.0000        Torsion   = 0.0000        Tether    = 0.0000      
VIRIAL 
Total     = -6317.6375    Constraint= 0.0000      
VDW       = -6317.6375    QQ        = 0.0000        Bond      = 0.0000      
BondAngle = 0.0000        Torsion   = 0.0000        Tether    = 0.0000      

MeanSquaredDisplacement
Species1
Atom 1: 3.14218 
--------------------------------------------------------------------------------

Step 10900	 Instantaneous Values
System
Temperature(K) = 245.5983    
Pressure(kbar) = 84.3926     
ConservedQty   = -887.2691   
ENERGY 
Total     = -879.0699     Kinetic   = 1565.2160     Potential = -2444.2859  
VDW       = -2444.2859    QQ        = 0.0000        Bond      = 0.0000      
BondAngle = 0.0000        Torsion   = 0.0000        Tether    = 0.0000      
VIRIAL 
Total     = -6760.1007    Constraint= 0.0000      
VDW       = -6760.1007    QQ        = 0.0000        Bond      = 0.0000      
BondAngle = 0.0000        Torsion   = 0.0000        Tether    = 0.0000      

MeanSquaredDisplacement
Species1
Atom 1: 3.50886 
--------------------------------------------------------------------------------

Step 11000	 Instantaneous Values
System
Temperature(K) = 235.5195    
Pressure(kbar) = 89.1380     
ConservedQty   = -887.0377   
ENERGY 
Total     = -907.7445     Kinetic   = 1500.9829     Potential = -2408.7273  
VDW       = -2408.7273    QQ        = 0.0000        Bond      = 0.0000      
BondAngle = 0.0000        Torsion   = 0.0000        Tether    = 0.0000      
VIRIAL 
Total     = -7444.7105    Constraint= 0.0000      
VDW       = -7444.7105    QQ        = 0.0000        Bond      = 0.0000      
BondAngle = 0.0000        Torsion   = 0.0000        Tether    = 0.0000      

MeanSquaredDisplacement
Species1
Atom 1: 4.02067 
--------------------------------------------------------------------------------

Step 11000	Averages
System
CELL
   A          B          C          Alpha      Beta       Gamma   
    8.6180     8.6180     8.6180    90.0000    90.0000    90.0000
Lattice vectors
   8.6180000000e+00    0.0000000000e+00    0.0000000000e+00
   6.1230317691e-38    8.6180000000e+00    0.0000000000e+00
   6.1230317691e-38    6.1230317691e-38    8.6180000000e+00
Cell Volume: 640.058   
Cell Type: Cubic    PBCType: CUBIC

Temperature(K) = 240.5719    
Pressure(kbar) = 85.9189     
ConservedQty   = -887.5712   
ENERGY 
Total     = -904.1723     Kinetic   = 1533.1824     Potential = -2437.3547  
VDW       = -2437.3547    QQ        = 0.0000        Bond      = 0.0000      
BondAngle = 0.0000        Torsion   = 0.0000        Tether    = 0.0000      
VIRIAL 
Total     = -7003.0367    Constraint= 0.0000      
VDW       = -7003.0367    QQ        = 0.0000        Bond      = 0.0000      
BondAngle = 0.0000        Torsion   = 0.0000        Tether    = 0.0000      

--------------------------------------------------------------------------------

--------------------------------------------------------------------------------

Step 11100	 Instantaneous Values
System
Temperature(K) = 240.6948    
Pressure(kbar) = 92.7468     
ConservedQty   = -886.6246   
ENERGY 
Total     = -856.7016     Kinetic   = 1533.9658     Potential = -2390.6674  
VDW       = -2390.6674    QQ        = 0.0000        Bond      = 0.0000      
BondAngle = 0.0000        Torsion   = 0.0000        Tether    = 0.0000      
VIRIAL 
Total     = -7801.6750    Constraint= 0.0000      
VDW       = -7801.6750    QQ        = 0.0000        Bond      = 0.0000      
BondAngle = 0.0000        Torsion   = 0.0000        Tether    = 0.0000      

MeanSquaredDisplacement
Species1
Atom 1: 4.5236 
--------------------------------------------------------------------------------

Step 11200	 Instantaneous Values
System
Temperature(K) = 243.6249    
Pressure(kbar) = 82.1278     
ConservedQty   = -887.6296   
ENERGY 
Total     = -924.7976     Kinetic   = 1552.6391     Potential = -2477.4367  
VDW       = -2477.4367    QQ        = 0.0000        Bond      = 0.0000      
BondAngle = 0.0000        Torsion   = 0.0000        Tether    = 0.0000      
VIRIAL 
Total     = -6519.8268    Constraint= 0.0000      
VDW       = -6519.8268    QQ        = 0.0000        Bond      = 0.0000      
BondAngle = 0.0000        Torsion   = 0.0000        Tether    = 0.0000      

MeanSquaredDisplacement
Species1
Atom 1: 5.00308 
--------------------------------------------------------------------------------

Step 11300	 Instantaneous Values
System
Temperature(K) = 247.9638    
Pressure(kbar) = 80.8423     
ConservedQty   = -886.9610   
ENERGY 
Total     = -889.1873     Kinetic   = 1580.2912     Potential = -2469.4785  
VDW       = -2469.4785    QQ        = 0.0000        Bond      = 0.0000      
BondAngle = 0.0000        Torsion   = 0.0000        Tether    = 0.0000      
VIRIAL 
Total     = -6313.8627    Constraint= 0.0000      
VDW       = -6313.8627    QQ        = 0.0000        Bond      = 0.0000      
BondAngle = 0.0000        Torsion   = 0.0000        Tether    = 0.0000      

MeanSquaredDisplacement
Species1
Atom 1: 5.50036 
--------------------------------------------------------------------------------

Step 11400	 Instantaneous Values
System
Temperature(K) = 249.7275    
Pressure(kbar) = 83.0102     
ConservedQty   = -887.6802   
ENERGY 
Total     = -880.9559     Kinetic   = 1591.5316     Potential = -2472.4875  
VDW       = -2472.4875    QQ        = 0.0000        Bond      = 0.0000      
BondAngle = 0.0000        Torsion   = 0.0000        Tether    = 0.0000      
VIRIAL 
Total     = -6545.4553    Constraint= 0.0000      
[...]
VDW       = -2479.9408    QQ        = 0.0000        Bond      = 0.0000      
BondAngle = 0.0000        Torsion   = 0.0000        Tether    = 0.0000      
VIRIAL 
Total     = -6097.8406    Constraint= 0.0000      
VDW       = -6097.8406    QQ        = 0.0000        Bond      = 0.0000      
BondAngle = 0.0000        Torsion   = 0.0000        Tether    = 0.0000      

MeanSquaredDisplacement
Species1
Atom 1: 222.12 
--------------------------------------------------------------------------------

Step 58000	 Instantaneous Values
System
Temperature(K) = 238.1366    
Pressure(kbar) = 89.6060     
ConservedQty   = -885.7518   
ENERGY 
Total     = -888.5093     Kinetic   = 1517.6620     Potential = -2406.1713  
VDW       = -2406.1713    QQ        = 0.0000        Bond      = 0.0000      
BondAngle = 0.0000        Torsion   = 0.0000        Tether    = 0.0000      
VIRIAL 
Total     = -7466.1999    Constraint= 0.0000      
VDW       = -7466.1999    QQ        = 0.0000        Bond      = 0.0000      
BondAngle = 0.0000        Torsion   = 0.0000        Tether    = 0.0000      

MeanSquaredDisplacement
Species1
Atom 1: 222.038 
--------------------------------------------------------------------------------

Step 58000	Averages
System
CELL
   A          B          C          Alpha      Beta       Gamma   
    8.6180     8.6180     8.6180    90.0000    90.0000    90.0000
Lattice vectors
   8.6180000000e+00    0.0000000000e+00    0.0000000000e+00
   1.2756316186e-39    8.6180000000e+00    0.0000000000e+00
   1.2756316186e-39    1.2756316186e-39    8.6180000000e+00
Cell Volume: 640.058   
Cell Type: Cubic    PBCType: CUBIC

Temperature(K) = 240.8690    
Pressure(kbar) = 86.3019     
ConservedQty   = -887.0179   
ENERGY 
Total     = -900.7473     Kinetic   = 1535.0758     Potential = -2435.8231  
VDW       = -2435.8231    QQ        = 0.0000        Bond      = 0.0000      
BondAngle = 0.0000        Torsion   = 0.0000        Tether    = 0.0000      
VIRIAL 
Total     = -7044.1450    Constraint= 0.0000      
VDW       = -7044.1450    QQ        = 0.0000        Bond      = 0.0000      
BondAngle = 0.0000        Torsion   = 0.0000        Tether    = 0.0000      

--------------------------------------------------------------------------------

--------------------------------------------------------------------------------

Step 58100	 Instantaneous Values
System
Temperature(K) = 237.9354    
Pressure(kbar) = 88.3008     
ConservedQty   = -885.4299   
ENERGY 
Total     = -905.0374     Kinetic   = 1516.3797     Potential = -2421.4171  
VDW       = -2421.4171    QQ        = 0.0000        Bond      = 0.0000      
BondAngle = 0.0000        Torsion   = 0.0000        Tether    = 0.0000      
VIRIAL 
Total     = -7315.7991    Constraint= 0.0000      
VDW       = -7315.7991    QQ        = 0.0000        Bond      = 0.0000      
BondAngle = 0.0000        Torsion   = 0.0000        Tether    = 0.0000      

MeanSquaredDisplacement
Species1
Atom 1: 223.059 
--------------------------------------------------------------------------------

Step 58200	 Instantaneous Values
System
Temperature(K) = 240.2422    
Pressure(kbar) = 85.0447     
ConservedQty   = -885.8987   
ENERGY 
Total     = -921.0872     Kinetic   = 1531.0808     Potential = -2452.1680  
VDW       = -2452.1680    QQ        = 0.0000        Bond      = 0.0000      
BondAngle = 0.0000        Torsion   = 0.0000        Tether    = 0.0000      
VIRIAL 
Total     = -6904.7917    Constraint= 0.0000      
VDW       = -6904.7917    QQ        = 0.0000        Bond      = 0.0000      
BondAngle = 0.0000        Torsion   = 0.0000        Tether    = 0.0000      

MeanSquaredDisplacement
Species1
Atom 1: 223.913 
--------------------------------------------------------------------------------

Step 58300	 Instantaneous Values
System
Temperature(K) = 245.5316    
Pressure(kbar) = 84.0586     
ConservedQty   = -887.0416   
ENERGY 
Total     = -879.7472     Kinetic   = 1564.7910     Potential = -2444.5382  
VDW       = -2444.5382    QQ        = 0.0000        Bond      = 0.0000      
BondAngle = 0.0000        Torsion   = 0.0000        Tether    = 0.0000      
VIRIAL 
Total     = -6721.8025    Constraint= 0.0000      
VDW       = -6721.8025    QQ        = 0.0000        Bond      = 0.0000      
BondAngle = 0.0000        Torsion   = 0.0000        Tether    = 0.0000      

MeanSquaredDisplacement
Species1
Atom 1: 224.502 
--------------------------------------------------------------------------------

Step 58400	 Instantaneous Values
System
Temperature(K) = 240.8428    
Pressure(kbar) = 88.7212     
ConservedQty   = -887.0764   
ENERGY 
Total     = -889.7627     Kinetic   = 1534.9088     Potential = -2424.6715  
VDW       = -2424.6715    QQ        = 0.0000        Bond      = 0.0000      
BondAngle = 0.0000        Torsion   = 0.0000        Tether    = 0.0000      
VIRIAL 
Total     = -7328.0040    Constraint= 0.0000      
VDW       = -7328.0040    QQ        = 0.0000        Bond      = 0.0000      
BondAngle = 0.0000        Torsion   = 0.0000        Tether    = 0.0000      

MeanSquaredDisplacement
Species1
Atom 1: 224.888 
--------------------------------------------------------------------------------

Step 58500	 Instantaneous Values
System
Temperature(K) = 247.2069    
Pressure(kbar) = 84.2522     
ConservedQty   = -887.2229   
ENERGY 
Total     = -877.5187     Kinetic   = 1575.4675     Potential = -2452.9862  
VDW       = -2452.9862    QQ        = 0.0000        Bond      = 0.0000      
BondAngle = 0.0000        Torsion   = 0.0000        Tether    = 0.0000      
VIRIAL 
Total     = -6723.1381    Constraint= 0.0000      
VDW       = -6723.1381    QQ        = 0.0000        Bond      = 0.0000      
BondAngle = 0.0000        Torsion   = 0.0000        Tether    = 0.0000      

MeanSquaredDisplacement
Species1
Atom 1: 225.226 
--------------------------------------------------------------------------------

Step 58600	 Instantaneous Values
System
Temperature(K) = 247.7657    
Pressure(kbar) = 81.8944     
ConservedQty   = -886.4843   
ENERGY 
Total     = -886.3928     Kinetic   = 1579.0291     Potential = -2465.4219  
VDW       = -2465.4219    QQ        = 0.0000        Bond      = 0.0000      
BondAngle = 0.0000        Torsion   = 0.0000        Tether    = 0.0000      
VIRIAL 
Total     = -6439.6901    Constraint= 0.0000      
VDW       = -6439.6901    QQ        = 0.0000        Bond      = 0.0000      
BondAngle = 0.0000        Torsion   = 0.0000        Tether    = 0.0000      

MeanSquaredDisplacement
Species1
Atom 1: 226.063 
--------------------------------------------------------------------------------

Step 58700	 Instantaneous Values
System
Temperature(K) = 238.6082    
Pressure(kbar) = 87.3687     
ConservedQty   = -885.8787   
ENERGY 
Total     = -900.7532     Kinetic   = 1520.6675     Potential = -2421.4206  
VDW       = -2421.4206    QQ        = 0.0000        Bond      = 0.0000      
BondAngle = 0.0000        Torsion   = 0.0000        Tether    = 0.0000      
VIRIAL 
Total     = -7197.9784    Constraint= 0.0000      
VDW       = -7197.9784    QQ        = 0.0000        Bond      = 0.0000      
BondAngle = 0.0000        Torsion   = 0.0000        Tether    = 0.0000      

MeanSquaredDisplacement
Species1
Atom 1: 226.867 
--------------------------------------------------------------------------------

Step 58800	 Instantaneous Values
System
Temperature(K) = 241.2947    
Pressure(kbar) = 85.4366     
ConservedQty   = -886.1285   
ENERGY 
Total     = -890.2437     Kinetic   = 1537.7887     Potential = -2428.0323  
VDW       = -2428.0323    QQ        = 0.0000        Bond      = 0.0000      
BondAngle = 0.0000        Torsion   = 0.0000        Tether    = 0.0000      
VIRIAL 
Total     = -6937.2982    Constraint= 0.0000      
VDW       = -6937.2982    QQ        = 0.0000        Bond      = 0.0000      
BondAngle = 0.0000        Torsion   = 0.0000        Tether    = 0.0000      

MeanSquaredDisplacement
Species1
Atom 1: 227.613 
--------------------------------------------------------------------------------

Step 58900	 Instantaneous Values
System
Temperature(K) = 246.3016    
Pressure(kbar) = 82.7461     
ConservedQty   = -886.9762   
ENERGY 
Total     = -893.4996     Kinetic   = 1569.6980     Potential = -2463.1976  
VDW       = -2463.1976    QQ        = 0.0000        Bond      = 0.0000      
BondAngle = 0.0000        Torsion   = 0.0000        Tether    = 0.0000      
VIRIAL 
Total     = -6558.1730    Constraint= 0.0000      
VDW       = -6558.1730    QQ        = 0.0000        Bond      = 0.0000      
BondAngle = 0.0000        Torsion   = 0.0000        Tether    = 0.0000      

MeanSquaredDisplacement
Species1
Atom 1: 228.42 
--------------------------------------------------------------------------------

Step 59000	 Instantaneous Values
System
Temperature(K) = 243.8201    
Pressure(kbar) = 80.4105     
ConservedQty   = -886.8843   
ENERGY 
Total     = -923.4515     Kinetic   = 1553.8832     Potential = -2477.3347  
VDW       = -2477.3347    QQ        = 0.0000        Bond      = 0.0000      
BondAngle = 0.0000        Torsion   = 0.0000        Tether    = 0.0000      
VIRIAL 
Total     = -6316.0692    Constraint= 0.0000      
VDW       = -6316.0692    QQ        = 0.0000        Bond      = 0.0000      
BondAngle = 0.0000        Torsion   = 0.0000        Tether    = 0.0000      

MeanSquaredDisplacement
Species1
Atom 1: 229.405 
--------------------------------------------------------------------------------

Step 59000	Averages
System
CELL
   A          B          C          Alpha      Beta       Gamma   
    8.6180     8.6180     8.6180    90.0000    90.0000    90.0000
Lattice vectors
   8.6180000000e+00    0.0000000000e+00    0.0000000000e+00
   1.2495983202e-39    8.6180000000e+00    0.0000000000e+00
   1.2495983202e-39    1.2495983202e-39    8.6180000000e+00
Cell Volume: 640.058   
Cell Type: Cubic    PBCType: CUBIC

Temperature(K) = 240.9116    
Pressure(kbar) = 86.2718     
ConservedQty   = -887.0074   
ENERGY 
Total     = -900.6657     Kinetic   = 1535.3471     Potential = -2436.0128  
VDW       = -2436.0128    QQ        = 0.0000        Bond      = 0.0000      
BondAngle = 0.0000        Torsion   = 0.0000        Tether    = 0.0000      
VIRIAL 
Total     = -7040.0660    Constraint= 0.0000      
VDW       = -7040.0660    QQ        = 0.0000        Bond      = 0.0000      
BondAngle = 0.0000        Torsion   = 0.0000        Tether    = 0.0000      

--------------------------------------------------------------------------------

--------------------------------------------------------------------------------

Step 59100	 Instantaneous Values
System
Temperature(K) = 232.0923    
Pressure(kbar) = 95.6785     
ConservedQty   = -887.4219   
ENERGY 
Total     = -883.4018     Kinetic   = 1479.1413     Potential = -2362.5431  
VDW       = -2362.5431    QQ        = 0.0000        Bond      = 0.0000      
BondAngle = 0.0000        Torsion   = 0.0000        Tether    = 0.0000      
VIRIAL 
Total     = -8254.9112    Constraint= 0.0000      
VDW       = -8254.9112    QQ        = 0.0000        Bond      = 0.0000      
BondAngle = 0.0000        Torsion   = 0.0000        Tether    = 0.0000      

MeanSquaredDisplacement
Species1
Atom 1: 230.504 
--------------------------------------------------------------------------------

Step 59200	 Instantaneous Values
System
Temperature(K) = 252.1767    
Pressure(kbar) = 78.4529     
ConservedQty   = -887.4528   
ENERGY 
Total     = -891.9100     Kinetic   = 1607.1403     Potential = -2499.0503  
VDW       = -2499.0503    QQ        = 0.0000        Bond      = 0.0000      
BondAngle = 0.0000        Torsion   = 0.0000        Tether    = 0.0000      
VIRIAL 
Total     = -5980.1355    Constraint= 0.0000      
VDW       = -5980.1355    QQ        = 0.0000        Bond      = 0.0000      
BondAngle = 0.0000        Torsion   = 0.0000        Tether    = 0.0000      

MeanSquaredDisplacement
Species1
Atom 1: 230.548 
--------------------------------------------------------------------------------

Step 59300	 Instantaneous Values
System
Temperature(K) = 237.7141    
Pressure(kbar) = 87.5836     
ConservedQty   = -887.0088   
ENERGY 
Total     = -913.2231     Kinetic   = 1514.9690     Potential = -2428.1921  
VDW       = -2428.1921    QQ        = 0.0000        Bond      = 0.0000      
BondAngle = 0.0000        Torsion   = 0.0000        Tether    = 0.0000      
VIRIAL 
Total     = -7234.5622    Constraint= 0.0000      
VDW       = -7234.5622    QQ        = 0.0000        Bond      = 0.0000      
BondAngle = 0.0000        Torsion   = 0.0000        Tether    = 0.0000      

MeanSquaredDisplacement
Species1
Atom 1: 230.613 
--------------------------------------------------------------------------------

Step 59400	 Instantaneous Values
System
Temperature(K) = 240.1049    
Pressure(kbar) = 87.0239     
ConservedQty   = -886.2464   
ENERGY 
Total     = -895.2740     Kinetic   = 1530.2059     Potential = -2425.4799  
VDW       = -2425.4799    QQ        = 0.0000        Bond      = 0.0000      
BondAngle = 0.0000        Torsion   = 0.0000        Tether    = 0.0000      
VIRIAL 
Total     = -7138.4952    Constraint= 0.0000      
VDW       = -7138.4952    QQ        = 0.0000        Bond      = 0.0000      
BondAngle = 0.0000        Torsion   = 0.0000        Tether    = 0.0000      

MeanSquaredDisplacement
Species1
Atom 1: 230.441 
--------------------------------------------------------------------------------

Step 59500	 Instantaneous Values
System
Temperature(K) = 239.0135    
Pressure(kbar) = 80.7232     
ConservedQty   = -885.7084   
ENERGY 
Total     = -961.8361     Kinetic   = 1523.2502     Potential = -2485.0864  
VDW       = -2485.0864    QQ        = 0.0000        Bond      = 0.0000      
BondAngle = 0.0000        Torsion   = 0.0000        Tether    = 0.0000      
VIRIAL 
Total     = -6413.9863    Constraint= 0.0000      
VDW       = -6413.9863    QQ        = 0.0000        Bond      = 0.0000      
BondAngle = 0.0000        Torsion   = 0.0000        Tether    = 0.0000      

MeanSquaredDisplacement
Species1
Atom 1: 230.726 
--------------------------------------------------------------------------------

Step 59600	 Instantaneous Values
System
Temperature(K) = 247.6714    
Pressure(kbar) = 92.1681     
ConservedQty   = -886.3373   
ENERGY 
Total     = -827.0643     Kinetic   = 1578.4276     Potential = -2405.4919  
VDW       = -2405.4919    QQ        = 0.0000        Bond      = 0.0000      
BondAngle = 0.0000        Torsion   = 0.0000        Tether    = 0.0000      
VIRIAL 
Total     = -7644.9315    Constraint= 0.0000      
VDW       = -7644.9315    QQ        = 0.0000        Bond      = 0.0000      
BondAngle = 0.0000        Torsion   = 0.0000        Tether    = 0.0000      

MeanSquaredDisplacement
Species1
Atom 1: 231.959 
--------------------------------------------------------------------------------

Step 59700	 Instantaneous Values
System
Temperature(K) = 236.5605    
Pressure(kbar) = 79.0923     
ConservedQty   = -886.3876   
ENERGY 
Total     = -959.3677     Kinetic   = 1507.6173     Potential = -2466.9850  
VDW       = -2466.9850    QQ        = 0.0000        Bond      = 0.0000      
BondAngle = 0.0000        Torsion   = 0.0000        Tether    = 0.0000      
VIRIAL 
Total     = -6254.1102    Constraint= 0.0000      
VDW       = -6254.1102    QQ        = 0.0000        Bond      = 0.0000      
BondAngle = 0.0000        Torsion   = 0.0000        Tether    = 0.0000      

MeanSquaredDisplacement
Species1
Atom 1: 232.23 
--------------------------------------------------------------------------------

Step 59800	 Instantaneous Values
System
Temperature(K) = 239.9353    
Pressure(kbar) = 88.9049     
ConservedQty   = -887.1761   
ENERGY 
Total     = -883.9543     Kinetic   = 1529.1254     Potential = -2413.0796  
VDW       = -2413.0796    QQ        = 0.0000        Bond      = 0.0000      
BondAngle = 0.0000        Torsion   = 0.0000        Tether    = 0.0000      
VIRIAL 
Total     = -7361.0980    Constraint= 0.0000      
VDW       = -7361.0980    QQ        = 0.0000        Bond      = 0.0000      
BondAngle = 0.0000        Torsion   = 0.0000        Tether    = 0.0000      

MeanSquaredDisplacement
Species1
Atom 1: 232.745 
--------------------------------------------------------------------------------

Step 59900	 Instantaneous Values
System
Temperature(K) = 249.8016    
Pressure(kbar) = 78.9289     
ConservedQty   = -886.7809   
ENERGY 
Total     = -912.0546     Kinetic   = 1592.0037     Potential = -2504.0583  
VDW       = -2504.0583    QQ        = 0.0000        Bond      = 0.0000      
BondAngle = 0.0000        Torsion   = 0.0000        Tether    = 0.0000      
VIRIAL 
Total     = -6066.1969    Constraint= 0.0000      
VDW       = -6066.1969    QQ        = 0.0000        Bond      = 0.0000      
BondAngle = 0.0000        Torsion   = 0.0000        Tether    = 0.0000      

MeanSquaredDisplacement
Species1
Atom 1: 233.216 
--------------------------------------------------------------------------------

Step 60000	 Instantaneous Values
System
Temperature(K) = 244.6871    
Pressure(kbar) = 85.8148     
ConservedQty   = -887.0459   
ENERGY 
Total     = -902.5061     Kinetic   = 1559.4085     Potential = -2461.9146  
VDW       = -2461.9146    QQ        = 0.0000        Bond      = 0.0000      
BondAngle = 0.0000        Torsion   = 0.0000        Tether    = 0.0000      
VIRIAL 
Total     = -6938.3829    Constraint= 0.0000      
VDW       = -6938.3829    QQ        = 0.0000        Bond      = 0.0000      
BondAngle = 0.0000        Torsion   = 0.0000        Tether    = 0.0000      

MeanSquaredDisplacement
Species1
Atom 1: 232.406 
--------------------------------------------------------------------------------

Step 60000	Averages
System
CELL
   A          B          C          Alpha      Beta       Gamma   
    8.6180     8.6180     8.6180    90.0000    90.0000    90.0000
Lattice vectors
   8.6180000000e+00    0.0000000000e+00    0.0000000000e+00
   1.2246063538e-39    8.6180000000e+00    0.0000000000e+00
   1.2246063538e-39    1.2246063538e-39    8.6180000000e+00
Cell Volume: 640.058   
Cell Type: Cubic    PBCType: CUBIC

Temperature(K) = 240.9329    
Pressure(kbar) = 86.2551     
ConservedQty   = -887.0024   
ENERGY 
Total     = -900.7136     Kinetic   = 1535.4828     Potential = -2436.1963  
VDW       = -2436.1963    QQ        = 0.0000        Bond      = 0.0000      
BondAngle = 0.0000        Torsion   = 0.0000        Tether    = 0.0000      
VIRIAL 
Total     = -7037.8383    Constraint= 0.0000      
VDW       = -7037.8383    QQ        = 0.0000        Bond      = 0.0000      
BondAngle = 0.0000        Torsion   = 0.0000        Tether    = 0.0000      

--------------------------------------------------------------------------------

--------------------------------------------------------------------------------

Step 60000	Averages
System
CELL
   A          B          C          Alpha      Beta       Gamma   
    8.6180     8.6180     8.6180    90.0000    90.0000    90.0000
Lattice vectors
   8.6180000000e+00    0.0000000000e+00    0.0000000000e+00
   1.2246063538e-39    8.6180000000e+00    0.0000000000e+00
   1.2246063538e-39    1.2246063538e-39    8.6180000000e+00
Cell Volume: 640.058   
Cell Type: Cubic    PBCType: CUBIC

Temperature(K) = 240.9329    
Pressure(kbar) = 86.2551     
ConservedQty   = -887.0024   
ENERGY 
Total     = -900.7136     Kinetic   = 1535.4828     Potential = -2436.1963  
VDW       = -2436.1963    QQ        = 0.0000        Bond      = 0.0000      
BondAngle = 0.0000        Torsion   = 0.0000        Tether    = 0.0000      
VIRIAL 
Total     = -7037.8383    Constraint= 0.0000      
VDW       = -7037.8383    QQ        = 0.0000        Bond      = 0.0000      
BondAngle = 0.0000        Torsion   = 0.0000        Tether    = 0.0000      

--------------------------------------------------------------------------------

