LJ
CONTROL PARAMETERS
 Mode:                Molecular Dynamics
 Number Of Steps:     60000
 Equilibration Steps: 10000
 Timestep:            0.0005 ps
 ConstraintTolerance: 1.000e-08
 Ensemble:            NVT    tau(T): 0.02000 Temperature: 240.5 K 
 Temperature scaling: Every 10 steps during equilibration period
 Forcefield:          VDW
 Cutoff : 2.500 Angstrom DCutoff: 0.3000 Angstrom
 LongRangeCorrection: Enabled

 PBC:   CUBIC, Shift particles

 FGDistribution:      Enabled, Active Species: 0    DeltaX = 1.200
 Statistics:          Enabled, Accumulation Interval: 100
 PeriodicOutput Interval:       100
 AveragesOutputInterval:        1000
 Configuration Save Start Step: 1
 Configuration Save Interval:   100000
 Configuration Save Data Level: Coordinates only
 Configuration Input DataLevel: Coordinates only
 IsPDBOutput:   true


--------------------------------------------------------------------------------

Energy units:kj/mol

MOLECULAR ENSEMBLE  
LJ SYSTEM
TotalMass        = 512.000000
CentreOfMass     = -0.002391 0.003500 -0.012219
DegreesOfFreedom = 1536

LJ
number of molecules 512
Atoms 1
 nr atom type res  resnr ffid mass   charge freeze
  1   LJ   LJ  MOL    0   0   1.00   0.0000 false

charge: 0
mass: 1
degrees of freedom: 3

InteractionWeightVDW
0 

InteractionWeightQQ
0 

Atom Connectivity
1 

MC displacement parameters
MaximumTranslation: 0.01 Ang   MaximumRotation: 5 deg

TotalMass        = 512
CentreOfMass     = -0.00239063 0.0035 -0.0122188
DegreesOfFreedom = 1536

NumberOfMolecules  512



--------------------------------------------------------------------------------

Forcefield NON_BONDED PARAMETERS

Cutoff:2.5  DCutoff:0.3
TabulationSize = 2750
vdw 1
  LJ   LJ lj          1        1

--------------------------------------------------------------------------------

CELL
   A          B          C          Alpha      Beta       Gamma   
    9.4850     9.4850     9.4850    90.0000    90.0000    90.0000
Lattice vectors
   9.4850000000e+00    0.0000000000e+00    0.0000000000e+00
   0.0000000000e+00    9.4850000000e+00    0.0000000000e+00
   0.0000000000e+00    0.0000000000e+00    9.4850000000e+00
Cell Volume: 853.32   
Cell Type: Cubic    PBCType: CUBIC

--------------------------------------------------------------------------------

THERMOSTAT
ExternalTemperature: 240.5 K
Temperature:         0 K
DegreesOfFreedom:    1533
Tau:  0.02 ps
Chi:      0
Chi_bhDT: 0
Chi_fhDT: 0
ConservedIntegral:  0

--------------------------------------------------------------------------------

BAROSTAT
ExtPressure:  599 kbar
Tau(P):       1 ps
Pressure:     0 kbar
Virial:       0 kJ/mol
StressTensor: false


--------------------------------------------------------------------------------

Step 100	 Instantaneous Values
System
Temperature(K) = 240.5000    
Pressure(kbar) = 13.8818     
ConservedQty   = -565.0412   
ENERGY 
Total     = -584.0497     Kinetic   = 1532.7240     Potential = -2116.7737  
VDW       = -2116.7737    QQ        = 0.0000        Bond      = 0.0000      
BondAngle = 0.0000        Torsion   = 0.0000        Tether    = 0.0000      
VIRIAL 
Total     = 896.4761      Constraint= 0.0000      
VDW       = 896.4761      QQ        = 0.0000        Bond      = 0.0000      
BondAngle = 0.0000        Torsion   = 0.0000        Tether    = 0.0000      

--------------------------------------------------------------------------------

Step 200	 Instantaneous Values
System
Temperature(K) = 240.5000    
Pressure(kbar) = 35.3913     
ConservedQty   = -375.7770   
ENERGY 
Total     = -388.0866     Kinetic   = 1532.7240     Potential = -1920.8106  
VDW       = -1920.8106    QQ        = 0.0000        Bond      = 0.0000      
BondAngle = 0.0000        Torsion   = 0.0000        Tether    = 0.0000      
VIRIAL 
Total     = -2464.2866    Constraint= 0.0000      
VDW       = -2464.2866    QQ        = 0.0000        Bond      = 0.0000      
BondAngle = 0.0000        Torsion   = 0.0000        Tether    = 0.0000      

--------------------------------------------------------------------------------

Step 300	 Instantaneous Values
System
Temperature(K) = 240.5000    
Pressure(kbar) = 25.1003     
ConservedQty   = -458.4448   
ENERGY 
Total     = -472.2319     Kinetic   = 1532.7240     Potential = -2004.9559  
VDW       = -2004.9559    QQ        = 0.0000        Bond      = 0.0000      
BondAngle = 0.0000        Torsion   = 0.0000        Tether    = 0.0000      
VIRIAL 
Total     = -856.3653     Constraint= 0.0000      
VDW       = -856.3653     QQ        = 0.0000        Bond      = 0.0000      
BondAngle = 0.0000        Torsion   = 0.0000        Tether    = 0.0000      

--------------------------------------------------------------------------------

Step 400	 Instantaneous Values
System
Temperature(K) = 240.5000    
Pressure(kbar) = 32.7886     
ConservedQty   = -372.6868   
ENERGY 
Total     = -382.8648     Kinetic   = 1532.7240     Potential = -1915.5888  
VDW       = -1915.5888    QQ        = 0.0000        Bond      = 0.0000      
BondAngle = 0.0000        Torsion   = 0.0000        Tether    = 0.0000      
VIRIAL 
Total     = -2057.6297    Constraint= 0.0000      
VDW       = -2057.6297    QQ        = 0.0000        Bond      = 0.0000      
BondAngle = 0.0000        Torsion   = 0.0000        Tether    = 0.0000      

--------------------------------------------------------------------------------

Step 500	 Instantaneous Values
System
Temperature(K) = 240.5000    
Pressure(kbar) = 25.0460     
ConservedQty   = -391.0298   
ENERGY 
Total     = -403.6231     Kinetic   = 1532.7240     Potential = -1936.3471  
VDW       = -1936.3471    QQ        = 0.0000        Bond      = 0.0000      
BondAngle = 0.0000        Torsion   = 0.0000        Tether    = 0.0000      
VIRIAL 
Total     = -847.8805     Constraint= 0.0000      
VDW       = -847.8805     QQ        = 0.0000        Bond      = 0.0000      
BondAngle = 0.0000        Torsion   = 0.0000        Tether    = 0.0000      

--------------------------------------------------------------------------------

Step 600	 Instantaneous Values
System
Temperature(K) = 240.5000    
Pressure(kbar) = 27.4299     
ConservedQty   = -366.4770   
ENERGY 
Total     = -378.2922     Kinetic   = 1532.7240     Potential = -1911.0162  
VDW       = -1911.0162    QQ        = 0.0000        Bond      = 0.0000      
BondAngle = 0.0000        Torsion   = 0.0000        Tether    = 0.0000      
VIRIAL 
Total     = -1220.3503    Constraint= 0.0000      
VDW       = -1220.3503    QQ        = 0.0000        Bond      = 0.0000      
BondAngle = 0.0000        Torsion   = 0.0000        Tether    = 0.0000      

--------------------------------------------------------------------------------

Step 700	 Instantaneous Values
System
Temperature(K) = 240.5000    
Pressure(kbar) = 25.2267     
ConservedQty   = -394.6042   
ENERGY 
Total     = -408.5889     Kinetic   = 1532.7240     Potential = -1941.3130  
VDW       = -1941.3130    QQ        = 0.0000        Bond      = 0.0000      
BondAngle = 0.0000        Torsion   = 0.0000        Tether    = 0.0000      
VIRIAL 
Total     = -876.1064     Constraint= 0.0000      
VDW       = -876.1064     QQ        = 0.0000        Bond      = 0.0000      
BondAngle = 0.0000        Torsion   = 0.0000        Tether    = 0.0000      

--------------------------------------------------------------------------------

Step 800	 Instantaneous Values
System
Temperature(K) = 240.5000    
Pressure(kbar) = 31.7358     
ConservedQty   = -340.7267   
ENERGY 
Total     = -353.4172     Kinetic   = 1532.7240     Potential = -1886.1413  
VDW       = -1886.1413    QQ        = 0.0000        Bond      = 0.0000      
BondAngle = 0.0000        Torsion   = 0.0000        Tether    = 0.0000      
VIRIAL 
Total     = -1893.1340    Constraint= 0.0000      
VDW       = -1893.1340    QQ        = 0.0000        Bond      = 0.0000      
BondAngle = 0.0000        Torsion   = 0.0000        Tether    = 0.0000      

--------------------------------------------------------------------------------

Step 900	 Instantaneous Values
System
Temperature(K) = 240.5000    
Pressure(kbar) = 33.8110     
ConservedQty   = -316.9137   
ENERGY 
Total     = -329.3953     Kinetic   = 1532.7240     Potential = -1862.1193  
VDW       = -1862.1193    QQ        = 0.0000        Bond      = 0.0000      
BondAngle = 0.0000        Torsion   = 0.0000        Tether    = 0.0000      
VIRIAL 
Total     = -2217.3678    Constraint= 0.0000      
VDW       = -2217.3678    QQ        = 0.0000        Bond      = 0.0000      
BondAngle = 0.0000        Torsion   = 0.0000        Tether    = 0.0000      

--------------------------------------------------------------------------------

Step 1000	 Instantaneous Values
System
Temperature(K) = 240.5000    
Pressure(kbar) = 21.7268     
ConservedQty   = -420.6090   
ENERGY 
Total     = -435.7984     Kinetic   = 1532.7240     Potential = -1968.5225  
VDW       = -1968.5225    QQ        = 0.0000        Bond      = 0.0000      
BondAngle = 0.0000        Torsion   = 0.0000        Tether    = 0.0000      
VIRIAL 
Total     = -329.2647     Constraint= 0.0000      
VDW       = -329.2647     QQ        = 0.0000        Bond      = 0.0000      
BondAngle = 0.0000        Torsion   = 0.0000        Tether    = 0.0000      

--------------------------------------------------------------------------------

Step 1100	 Instantaneous Values
System
Temperature(K) = 240.5000    
Pressure(kbar) = 24.1490     
ConservedQty   = -414.0249   
ENERGY 
Total     = -432.1147     Kinetic   = 1532.7240     Potential = -1964.8387  
VDW       = -1964.8387    QQ        = 0.0000        Bond      = 0.0000      
BondAngle = 0.0000        Torsion   = 0.0000        Tether    = 0.0000      
VIRIAL 
Total     = -707.7198     Constraint= 0.0000      
VDW       = -707.7198     QQ        = 0.0000        Bond      = 0.0000      
BondAngle = 0.0000        Torsion   = 0.0000        Tether    = 0.0000      

--------------------------------------------------------------------------------

Step 1200	 Instantaneous Values
System
Temperature(K) = 240.5000    
Pressure(kbar) = 25.9982     
ConservedQty   = -393.4585   
ENERGY 
Total     = -411.9676     Kinetic   = 1532.7240     Potential = -1944.6916  
VDW       = -1944.6916    QQ        = 0.0000        Bond      = 0.0000      
BondAngle = 0.0000        Torsion   = 0.0000        Tether    = 0.0000      
VIRIAL 
Total     = -996.6503     Constraint= 0.0000      
VDW       = -996.6503     QQ        = 0.0000        Bond      = 0.0000      
BondAngle = 0.0000        Torsion   = 0.0000        Tether    = 0.0000      

--------------------------------------------------------------------------------

Step 1300	 Instantaneous Values
System
Temperature(K) = 240.5000    
Pressure(kbar) = 33.0453     
ConservedQty   = -317.3349   
ENERGY 
Total     = -334.4626     Kinetic   = 1532.7240     Potential = -1867.1866  
VDW       = -1867.1866    QQ        = 0.0000        Bond      = 0.0000      
BondAngle = 0.0000        Torsion   = 0.0000        Tether    = 0.0000      
VIRIAL 
Total     = -2097.7331    Constraint= 0.0000      
VDW       = -2097.7331    QQ        = 0.0000        Bond      = 0.0000      
BondAngle = 0.0000        Torsion   = 0.0000        Tether    = 0.0000      

--------------------------------------------------------------------------------

Step 1400	 Instantaneous Values
System
Temperature(K) = 240.5000    
Pressure(kbar) = 26.9601     
ConservedQty   = -388.7534   
ENERGY 
Total     = -406.8082     Kinetic   = 1532.7240     Potential = -1939.5322  
VDW       = -1939.5322    QQ        = 0.0000        Bond      = 0.0000      
BondAngle = 0.0000        Torsion   = 0.0000        Tether    = 0.0000      
VIRIAL 
Total     = -1146.9470    Constraint= 0.0000      
VDW       = -1146.9470    QQ        = 0.0000        Bond      = 0.0000      
BondAngle = 0.0000        Torsion   = 0.0000        Tether    = 0.0000      

--------------------------------------------------------------------------------

Step 1500	 Instantaneous Values
System
Temperature(K) = 240.5000    
Pressure(kbar) = 35.1130     
ConservedQty   = -319.6458   
ENERGY 
Total     = -336.6745     Kinetic   = 1532.7240     Potential = -1869.3985  
VDW       = -1869.3985    QQ        = 0.0000        Bond      = 0.0000      
BondAngle = 0.0000        Torsion   = 0.0000        Tether    = 0.0000      
VIRIAL 
Total     = -2420.8067    Constraint= 0.0000      
VDW       = -2420.8067    QQ        = 0.0000        Bond      = 0.0000      
BondAngle = 0.0000        Torsion   = 0.0000        Tether    = 0.0000      

--------------------------------------------------------------------------------

Step 1600	 Instantaneous Values
System
Temperature(K) = 240.5000    
Pressure(kbar) = 26.7894     
ConservedQty   = -378.1993   
ENERGY 
Total     = -395.4098     Kinetic   = 1532.7240     Potential = -1928.1338  
VDW       = -1928.1338    QQ        = 0.0000        Bond      = 0.0000      
BondAngle = 0.0000        Torsion   = 0.0000        Tether    = 0.0000      
VIRIAL 
Total     = -1120.2739    Constraint= 0.0000      
VDW       = -1120.2739    QQ        = 0.0000        Bond      = 0.0000      
BondAngle = 0.0000        Torsion   = 0.0000        Tether    = 0.0000      

--------------------------------------------------------------------------------

Step 1700	 Instantaneous Values
System
Temperature(K) = 240.5000    
Pressure(kbar) = 33.5967     
ConservedQty   = -342.4171   
ENERGY 
Total     = -359.9235     Kinetic   = 1532.7240     Potential = -1892.6475  
VDW       = -1892.6475    QQ        = 0.0000        Bond      = 0.0000      
BondAngle = 0.0000        Torsion   = 0.0000        Tether    = 0.0000      
VIRIAL 
Total     = -2183.8834    Constraint= 0.0000      
VDW       = -2183.8834    QQ        = 0.0000        Bond      = 0.0000      
BondAngle = 0.0000        Torsion   = 0.0000        Tether    = 0.0000      

--------------------------------------------------------------------------------

Step 1800	 Instantaneous Values
System
Temperature(K) = 240.5000    
Pressure(kbar) = 38.9548     
ConservedQty   = -297.9263   
ENERGY 
Total     = -314.2389     Kinetic   = 1532.7240     Potential = -1846.9629  
VDW       = -1846.9629    QQ        = 0.0000        Bond      = 0.0000      
BondAngle = 0.0000        Torsion   = 0.0000        Tether    = 0.0000      
VIRIAL 
Total     = -3021.0636    Constraint= 0.0000      
VDW       = -3021.0636    QQ        = 0.0000        Bond      = 0.0000      
BondAngle = 0.0000        Torsion   = 0.0000        Tether    = 0.0000      

--------------------------------------------------------------------------------

Step 1900	 Instantaneous Values
System
Temperature(K) = 240.5000    
Pressure(kbar) = 28.1843     
ConservedQty   = -378.5779   
ENERGY 
Total     = -395.1870     Kinetic   = 1532.7240     Potential = -1927.9110  
VDW       = -1927.9110    QQ        = 0.0000        Bond      = 0.0000      
BondAngle = 0.0000        Torsion   = 0.0000        Tether    = 0.0000      
VIRIAL 
Total     = -1338.2216    Constraint= 0.0000      
VDW       = -1338.2216    QQ        = 0.0000        Bond      = 0.0000      
BondAngle = 0.0000        Torsion   = 0.0000        Tether    = 0.0000      

--------------------------------------------------------------------------------

Step 2000	 Instantaneous Values
System
Temperature(K) = 240.5000    
Pressure(kbar) = 29.5283     
ConservedQty   = -358.1627   
ENERGY 
Total     = -375.5983     Kinetic   = 1532.7240     Potential = -1908.3223  
VDW       = -1908.3223    QQ        = 0.0000        Bond      = 0.0000      
BondAngle = 0.0000        Torsion   = 0.0000        Tether    = 0.0000      
VIRIAL 
Total     = -1548.2171    Constraint= 0.0000      
VDW       = -1548.2171    QQ        = 0.0000        Bond      = 0.0000      
BondAngle = 0.0000        Torsion   = 0.0000        Tether    = 0.0000      

--------------------------------------------------------------------------------

Step 2100	 Instantaneous Values
System
Temperature(K) = 240.5000    
Pressure(kbar) = 30.8951     
ConservedQty   = -354.8456   
ENERGY 
Total     = -368.6606     Kinetic   = 1532.7240     Potential = -1901.3846  
VDW       = -1901.3846    QQ        = 0.0000        Bond      = 0.0000      
BondAngle = 0.0000        Torsion   = 0.0000        Tether    = 0.0000      
VIRIAL 
Total     = -1761.7702    Constraint= 0.0000      
VDW       = -1761.7702    QQ        = 0.0000        Bond      = 0.0000      
BondAngle = 0.0000        Torsion   = 0.0000        Tether    = 0.0000      

--------------------------------------------------------------------------------

Step 2200	 Instantaneous Values
System
Temperature(K) = 240.5000    
Pressure(kbar) = 28.4230     
ConservedQty   = -391.2401   
ENERGY 
Total     = -407.2660     Kinetic   = 1532.7240     Potential = -1939.9900  
VDW       = -1939.9900    QQ        = 0.0000        Bond      = 0.0000      
BondAngle = 0.0000        Torsion   = 0.0000        Tether    = 0.0000      
VIRIAL 
Total     = -1375.5190    Constraint= 0.0000      
VDW       = -1375.5190    QQ        = 0.0000        Bond      = 0.0000      
BondAngle = 0.0000        Torsion   = 0.0000        Tether    = 0.0000      

--------------------------------------------------------------------------------

Step 2300	 Instantaneous Values
System
Temperature(K) = 240.5000    
Pressure(kbar) = 32.4389     
ConservedQty   = -346.7523   
ENERGY 
Total     = -361.9011     Kinetic   = 1532.7240     Potential = -1894.6251  
VDW       = -1894.6251    QQ        = 0.0000        Bond      = 0.0000      
BondAngle = 0.0000        Torsion   = 0.0000        Tether    = 0.0000      
VIRIAL 
Total     = -2002.9869    Constraint= 0.0000      
VDW       = -2002.9869    QQ        = 0.0000        Bond      = 0.0000      
BondAngle = 0.0000        Torsion   = 0.0000        Tether    = 0.0000      

--------------------------------------------------------------------------------

Step 2400	 Instantaneous Values
System
Temperature(K) = 240.5000    
Pressure(kbar) = 27.8384     
ConservedQty   = -375.4973   
ENERGY 
Total     = -389.6105     Kinetic   = 1532.7240     Potential = -1922.3346  
VDW       = -1922.3346    QQ        = 0.0000        Bond      = 0.0000      
BondAngle = 0.0000        Torsion   = 0.0000        Tether    = 0.0000      
VIRIAL 
Total     = -1284.1790    Constraint= 0.0000      
VDW       = -1284.1790    QQ        = 0.0000        Bond      = 0.0000      
BondAngle = 0.0000        Torsion   = 0.0000        Tether    = 0.0000      

--------------------------------------------------------------------------------

Step 2500	 Instantaneous Values
System
Temperature(K) = 240.5000    
Pressure(kbar) = 33.2893     
ConservedQty   = -338.9672   
ENERGY 
Total     = -352.7250     Kinetic   = 1532.7240     Potential = -1885.4490  
VDW       = -1885.4490    QQ        = 0.0000        Bond      = 0.0000      
BondAngle = 0.0000        Torsion   = 0.0000        Tether    = 0.0000      
VIRIAL 
Total     = -2135.8581    Constraint= 0.0000      
VDW       = -2135.8581    QQ        = 0.0000        Bond      = 0.0000      
BondAngle = 0.0000        Torsion   = 0.0000        Tether    = 0.0000      

--------------------------------------------------------------------------------

Step 2600	 Instantaneous Values
System
Temperature(K) = 240.5000    
Pressure(kbar) = 31.0170     
ConservedQty   = -344.8389   
ENERGY 
Total     = -359.6639     Kinetic   = 1532.7240     Potential = -1892.3879  
VDW       = -1892.3879    QQ        = 0.0000        Bond      = 0.0000      
BondAngle = 0.0000        Torsion   = 0.0000        Tether    = 0.0000      
VIRIAL 
Total     = -1780.8122    Constraint= 0.0000      
VDW       = -1780.8122    QQ        = 0.0000        Bond      = 0.0000      
BondAngle = 0.0000        Torsion   = 0.0000        Tether    = 0.0000      

--------------------------------------------------------------------------------

Step 2700	 Instantaneous Values
System
Temperature(K) = 240.5000    
Pressure(kbar) = 21.8211     
ConservedQty   = -406.8894   
ENERGY 
Total     = -424.3447     Kinetic   = 1532.7240     Potential = -1957.0687  
VDW       = -1957.0687    QQ        = 0.0000        Bond      = 0.0000      
BondAngle = 0.0000        Torsion   = 0.0000        Tether    = 0.0000      
VIRIAL 
Total     = -343.9979     Constraint= 0.0000      
VDW       = -343.9979     QQ        = 0.0000        Bond      = 0.0000      
BondAngle = 0.0000        Torsion   = 0.0000        Tether    = 0.0000      

--------------------------------------------------------------------------------

Step 2800	 Instantaneous Values
System
Temperature(K) = 240.5000    
Pressure(kbar) = 22.3183     
ConservedQty   = -420.8727   
ENERGY 
Total     = -439.6097     Kinetic   = 1532.7240     Potential = -1972.3337  
VDW       = -1972.3337    QQ        = 0.0000        Bond      = 0.0000      
BondAngle = 0.0000        Torsion   = 0.0000        Tether    = 0.0000      
VIRIAL 
Total     = -421.6829     Constraint= 0.0000      
VDW       = -421.6829     QQ        = 0.0000        Bond      = 0.0000      
BondAngle = 0.0000        Torsion   = 0.0000        Tether    = 0.0000      

--------------------------------------------------------------------------------

Step 2900	 Instantaneous Values
System
Temperature(K) = 240.5000    
Pressure(kbar) = 31.6968     
ConservedQty   = -339.0001   
ENERGY 
Total     = -354.5843     Kinetic   = 1532.7240     Potential = -1887.3084  
VDW       = -1887.3084    QQ        = 0.0000        Bond      = 0.0000      
BondAngle = 0.0000        Torsion   = 0.0000        Tether    = 0.0000      
VIRIAL 
Total     = -1887.0391    Constraint= 0.0000      
VDW       = -1887.0391    QQ        = 0.0000        Bond      = 0.0000      
BondAngle = 0.0000        Torsion   = 0.0000        Tether    = 0.0000      

--------------------------------------------------------------------------------

Step 3000	 Instantaneous Values
System
Temperature(K) = 240.5000    
Pressure(kbar) = 32.7620     
ConservedQty   = -336.0725   
ENERGY 
Total     = -351.2829     Kinetic   = 1532.7240     Potential = -1884.0069  
VDW       = -1884.0069    QQ        = 0.0000        Bond      = 0.0000      
BondAngle = 0.0000        Torsion   = 0.0000        Tether    = 0.0000      
VIRIAL 
Total     = -2053.4660    Constraint= 0.0000      
VDW       = -2053.4660    QQ        = 0.0000        Bond      = 0.0000      
BondAngle = 0.0000        Torsion   = 0.0000        Tether    = 0.0000      

--------------------------------------------------------------------------------

Step 3100	 Instantaneous Values
System
Temperature(K) = 240.5000    
Pressure(kbar) = 24.4857     
ConservedQty   = -418.1827   
ENERGY 
Total     = -433.2387     Kinetic   = 1532.7240     Potential = -1965.9628  
VDW       = -1965.9628    QQ        = 0.0000        Bond      = 0.0000      
BondAngle = 0.0000        Torsion   = 0.0000        Tether    = 0.0000      
VIRIAL 
Total     = -760.3294     Constraint= 0.0000      
VDW       = -760.3294     QQ        = 0.0000        Bond      = 0.0000      
BondAngle = 0.0000        Torsion   = 0.0000        Tether    = 0.0000      

--------------------------------------------------------------------------------

Step 3200	 Instantaneous Values
System
Temperature(K) = 240.5000    
Pressure(kbar) = 29.3773     
ConservedQty   = -364.1831   
ENERGY 
Total     = -378.9104     Kinetic   = 1532.7240     Potential = -1911.6345  
VDW       = -1911.6345    QQ        = 0.0000        Bond      = 0.0000      
BondAngle = 0.0000        Torsion   = 0.0000        Tether    = 0.0000      
VIRIAL 
Total     = -1524.6228    Constraint= 0.0000      
VDW       = -1524.6228    QQ        = 0.0000        Bond      = 0.0000      
BondAngle = 0.0000        Torsion   = 0.0000        Tether    = 0.0000      

--------------------------------------------------------------------------------

Step 3300	 Instantaneous Values
System
Temperature(K) = 240.5000    
Pressure(kbar) = 27.7057     
ConservedQty   = -383.3800   
ENERGY 
Total     = -397.9377     Kinetic   = 1532.7240     Potential = -1930.6617  
VDW       = -1930.6617    QQ        = 0.0000        Bond      = 0.0000      
BondAngle = 0.0000        Torsion   = 0.0000        Tether    = 0.0000      
VIRIAL 
Total     = -1263.4374    Constraint= 0.0000      
VDW       = -1263.4374    QQ        = 0.0000        Bond      = 0.0000      
BondAngle = 0.0000        Torsion   = 0.0000        Tether    = 0.0000      

--------------------------------------------------------------------------------

Step 3400	 Instantaneous Values
System
Temperature(K) = 240.5000    
Pressure(kbar) = 30.9114     
ConservedQty   = -364.1851   
ENERGY 
Total     = -376.3899     Kinetic   = 1532.7240     Potential = -1909.1139  
VDW       = -1909.1139    QQ        = 0.0000        Bond      = 0.0000      
BondAngle = 0.0000        Torsion   = 0.0000        Tether    = 0.0000      
VIRIAL 
Total     = -1764.3167    Constraint= 0.0000      
VDW       = -1764.3167    QQ        = 0.0000        Bond      = 0.0000      
BondAngle = 0.0000        Torsion   = 0.0000        Tether    = 0.0000      

--------------------------------------------------------------------------------

Step 3500	 Instantaneous Values
System
Temperature(K) = 240.5000    
Pressure(kbar) = 25.9827     
ConservedQty   = -400.0650   
ENERGY 
Total     = -412.4256     Kinetic   = 1532.7240     Potential = -1945.1496  
VDW       = -1945.1496    QQ        = 0.0000        Bond      = 0.0000      
BondAngle = 0.0000        Torsion   = 0.0000        Tether    = 0.0000      
VIRIAL 
Total     = -994.2330     Constraint= 0.0000      
VDW       = -994.2330     QQ        = 0.0000        Bond      = 0.0000      
BondAngle = 0.0000        Torsion   = 0.0000        Tether    = 0.0000      

--------------------------------------------------------------------------------

Step 3600	 Instantaneous Values
System
Temperature(K) = 240.5000    
Pressure(kbar) = 24.8071     
ConservedQty   = -408.0982   
ENERGY 
Total     = -422.2895     Kinetic   = 1532.7240     Potential = -1955.0135  
VDW       = -1955.0135    QQ        = 0.0000        Bond      = 0.0000      
BondAngle = 0.0000        Torsion   = 0.0000        Tether    = 0.0000      
VIRIAL 
Total     = -810.5436     Constraint= 0.0000      
VDW       = -810.5436     QQ        = 0.0000        Bond      = 0.0000      
BondAngle = 0.0000        Torsion   = 0.0000        Tether    = 0.0000      

--------------------------------------------------------------------------------

Step 3700	 Instantaneous Values
System
Temperature(K) = 240.5000    
Pressure(kbar) = 20.7598     
ConservedQty   = -425.9000   
ENERGY 
Total     = -441.1884     Kinetic   = 1532.7240     Potential = -1973.9124  
VDW       = -1973.9124    QQ        = 0.0000        Bond      = 0.0000      
BondAngle = 0.0000        Torsion   = 0.0000        Tether    = 0.0000      
VIRIAL 
Total     = -178.1783     Constraint= 0.0000      
VDW       = -178.1783     QQ        = 0.0000        Bond      = 0.0000      
BondAngle = 0.0000        Torsion   = 0.0000        Tether    = 0.0000      

--------------------------------------------------------------------------------

Step 3800	 Instantaneous Values
System
Temperature(K) = 240.5000    
Pressure(kbar) = 30.4191     
ConservedQty   = -340.6267   
ENERGY 
Total     = -354.1725     Kinetic   = 1532.7240     Potential = -1886.8965  
VDW       = -1886.8965    QQ        = 0.0000        Bond      = 0.0000      
BondAngle = 0.0000        Torsion   = 0.0000        Tether    = 0.0000      
VIRIAL 
Total     = -1687.4050    Constraint= 0.0000      
VDW       = -1687.4050    QQ        = 0.0000        Bond      = 0.0000      
BondAngle = 0.0000        Torsion   = 0.0000        Tether    = 0.0000      

--------------------------------------------------------------------------------

Step 3900	 Instantaneous Values
System
Temperature(K) = 240.5000    
Pressure(kbar) = 23.6179     
ConservedQty   = -400.4395   
ENERGY 
Total     = -413.6791     Kinetic   = 1532.7240     Potential = -1946.4031  
VDW       = -1946.4031    QQ        = 0.0000        Bond      = 0.0000      
BondAngle = 0.0000        Torsion   = 0.0000        Tether    = 0.0000      
VIRIAL 
Total     = -624.7476     Constraint= 0.0000      
VDW       = -624.7476     QQ        = 0.0000        Bond      = 0.0000      
BondAngle = 0.0000        Torsion   = 0.0000        Tether    = 0.0000      

--------------------------------------------------------------------------------

Step 4000	 Instantaneous Values
System
Temperature(K) = 240.5000    
Pressure(kbar) = 29.0297     
ConservedQty   = -347.9443   
ENERGY 
Total     = -361.5584     Kinetic   = 1532.7240     Potential = -1894.2824  
VDW       = -1894.2824    QQ        = 0.0000        Bond      = 0.0000      
BondAngle = 0.0000        Torsion   = 0.0000        Tether    = 0.0000      
VIRIAL 
Total     = -1470.3129    Constraint= 0.0000      
VDW       = -1470.3129    QQ        = 0.0000        Bond      = 0.0000      
BondAngle = 0.0000        Torsion   = 0.0000        Tether    = 0.0000      

--------------------------------------------------------------------------------

Step 4100	 Instantaneous Values
System
Temperature(K) = 240.5000    
Pressure(kbar) = 29.7507     
ConservedQty   = -356.2606   
ENERGY 
Total     = -370.1152     Kinetic   = 1532.7240     Potential = -1902.8392  
VDW       = -1902.8392    QQ        = 0.0000        Bond      = 0.0000      
BondAngle = 0.0000        Torsion   = 0.0000        Tether    = 0.0000      
VIRIAL 
Total     = -1582.9665    Constraint= 0.0000      
VDW       = -1582.9665    QQ        = 0.0000        Bond      = 0.0000      
BondAngle = 0.0000        Torsion   = 0.0000        Tether    = 0.0000      

--------------------------------------------------------------------------------

Step 4200	 Instantaneous Values
System
Temperature(K) = 240.5000    
Pressure(kbar) = 31.4622     
ConservedQty   = -359.5665   
ENERGY 
Total     = -374.2376     Kinetic   = 1532.7240     Potential = -1906.9616  
VDW       = -1906.9616    QQ        = 0.0000        Bond      = 0.0000      
BondAngle = 0.0000        Torsion   = 0.0000        Tether    = 0.0000      
VIRIAL 
Total     = -1850.3786    Constraint= 0.0000      
VDW       = -1850.3786    QQ        = 0.0000        Bond      = 0.0000      
BondAngle = 0.0000        Torsion   = 0.0000        Tether    = 0.0000      

--------------------------------------------------------------------------------

Step 4300	 Instantaneous Values
System
Temperature(K) = 240.5000    
Pressure(kbar) = 29.3829     
ConservedQty   = -359.9929   
ENERGY 
Total     = -374.5969     Kinetic   = 1532.7240     Potential = -1907.3209  
VDW       = -1907.3209    QQ        = 0.0000        Bond      = 0.0000      
BondAngle = 0.0000        Torsion   = 0.0000        Tether    = 0.0000      
VIRIAL 
Total     = -1525.4928    Constraint= 0.0000      
VDW       = -1525.4928    QQ        = 0.0000        Bond      = 0.0000      
BondAngle = 0.0000        Torsion   = 0.0000        Tether    = 0.0000      

--------------------------------------------------------------------------------

Step 4400	 Instantaneous Values
System
Temperature(K) = 240.5000    
Pressure(kbar) = 29.0042     
ConservedQty   = -383.0355   
ENERGY 
Total     = -400.4136     Kinetic   = 1532.7240     Potential = -1933.1376  
VDW       = -1933.1376    QQ        = 0.0000        Bond      = 0.0000      
BondAngle = 0.0000        Torsion   = 0.0000        Tether    = 0.0000      
VIRIAL 
Total     = -1466.3282    Constraint= 0.0000      
VDW       = -1466.3282    QQ        = 0.0000        Bond      = 0.0000      
BondAngle = 0.0000        Torsion   = 0.0000        Tether    = 0.0000      

--------------------------------------------------------------------------------

Step 4500	 Instantaneous Values
System
Temperature(K) = 240.5000    
Pressure(kbar) = 31.2224     
ConservedQty   = -334.6311   
ENERGY 
Total     = -352.0863     Kinetic   = 1532.7240     Potential = -1884.8103  
VDW       = -1884.8103    QQ        = 0.0000        Bond      = 0.0000      
BondAngle = 0.0000        Torsion   = 0.0000        Tether    = 0.0000      
VIRIAL 
Total     = -1812.9066    Constraint= 0.0000      
VDW       = -1812.9066    QQ        = 0.0000        Bond      = 0.0000      
BondAngle = 0.0000        Torsion   = 0.0000        Tether    = 0.0000      

--------------------------------------------------------------------------------

Step 4600	 Instantaneous Values
System
Temperature(K) = 240.5000    
Pressure(kbar) = 23.5392     
ConservedQty   = -402.1896   
ENERGY 
Total     = -421.8225     Kinetic   = 1532.7240     Potential = -1954.5465  
VDW       = -1954.5465    QQ        = 0.0000        Bond      = 0.0000      
BondAngle = 0.0000        Torsion   = 0.0000        Tether    = 0.0000      
VIRIAL 
Total     = -612.4457     Constraint= 0.0000      
VDW       = -612.4457     QQ        = 0.0000        Bond      = 0.0000      
BondAngle = 0.0000        Torsion   = 0.0000        Tether    = 0.0000      

--------------------------------------------------------------------------------

Step 4700	 Instantaneous Values
System
Temperature(K) = 240.5000    
Pressure(kbar) = 24.8643     
ConservedQty   = -382.2283   
ENERGY 
Total     = -403.9104     Kinetic   = 1532.7240     Potential = -1936.6344  
VDW       = -1936.6344    QQ        = 0.0000        Bond      = 0.0000      
BondAngle = 0.0000        Torsion   = 0.0000        Tether    = 0.0000      
VIRIAL 
Total     = -819.4897     Constraint= 0.0000      
VDW       = -819.4897     QQ        = 0.0000        Bond      = 0.0000      
BondAngle = 0.0000        Torsion   = 0.0000        Tether    = 0.0000      

--------------------------------------------------------------------------------

Step 4800	 Instantaneous Values
System
Temperature(K) = 240.5000    
Pressure(kbar) = 33.3947     
ConservedQty   = -332.9999   
ENERGY 
Total     = -352.6290     Kinetic   = 1532.7240     Potential = -1885.3530  
VDW       = -1885.3530    QQ        = 0.0000        Bond      = 0.0000      
BondAngle = 0.0000        Torsion   = 0.0000        Tether    = 0.0000      
VIRIAL 
Total     = -2152.3216    Constraint= 0.0000      
VDW       = -2152.3216    QQ        = 0.0000        Bond      = 0.0000      
BondAngle = 0.0000        Torsion   = 0.0000        Tether    = 0.0000      

--------------------------------------------------------------------------------

Step 4900	 Instantaneous Values
System
Temperature(K) = 240.5000    
Pressure(kbar) = 30.1082     
ConservedQty   = -380.3530   
ENERGY 
Total     = -398.9558     Kinetic   = 1532.7240     Potential = -1931.6798  
VDW       = -1931.6798    QQ        = 0.0000        Bond      = 0.0000      
BondAngle = 0.0000        Torsion   = 0.0000        Tether    = 0.0000      
VIRIAL 
Total     = -1638.8199    Constraint= 0.0000      
VDW       = -1638.8199    QQ        = 0.0000        Bond      = 0.0000      
BondAngle = 0.0000        Torsion   = 0.0000        Tether    = 0.0000      

--------------------------------------------------------------------------------

Step 5000	 Instantaneous Values
System
Temperature(K) = 240.5000    
Pressure(kbar) = 24.0371     
ConservedQty   = -388.5151   
ENERGY 
Total     = -408.4157     Kinetic   = 1532.7240     Potential = -1941.1397  
VDW       = -1941.1397    QQ        = 0.0000        Bond      = 0.0000      
BondAngle = 0.0000        Torsion   = 0.0000        Tether    = 0.0000      
VIRIAL 
Total     = -690.2397     Constraint= 0.0000      
VDW       = -690.2397     QQ        = 0.0000        Bond      = 0.0000      
BondAngle = 0.0000        Torsion   = 0.0000        Tether    = 0.0000      

--------------------------------------------------------------------------------

Step 5100	 Instantaneous Values
System
Temperature(K) = 240.5000    
Pressure(kbar) = 35.2168     
ConservedQty   = -343.6455   
ENERGY 
Total     = -363.5980     Kinetic   = 1532.7240     Potential = -1896.3220  
VDW       = -1896.3220    QQ        = 0.0000        Bond      = 0.0000      
BondAngle = 0.0000        Torsion   = 0.0000        Tether    = 0.0000      
VIRIAL 
Total     = -2437.0230    Constraint= 0.0000      
VDW       = -2437.0230    QQ        = 0.0000        Bond      = 0.0000      
BondAngle = 0.0000        Torsion   = 0.0000        Tether    = 0.0000      

--------------------------------------------------------------------------------

Step 5200	 Instantaneous Values
System
Temperature(K) = 240.5000    
Pressure(kbar) = 24.2421     
ConservedQty   = -413.9287   
ENERGY 
Total     = -434.7845     Kinetic   = 1532.7240     Potential = -1967.5085  
VDW       = -1967.5085    QQ        = 0.0000        Bond      = 0.0000      
BondAngle = 0.0000        Torsion   = 0.0000        Tether    = 0.0000      
VIRIAL 
Total     = -722.2642     Constraint= 0.0000      
VDW       = -722.2642     QQ        = 0.0000        Bond      = 0.0000      
BondAngle = 0.0000        Torsion   = 0.0000        Tether    = 0.0000      

--------------------------------------------------------------------------------

Step 5300	 Instantaneous Values
System
Temperature(K) = 240.5000    
Pressure(kbar) = 31.6902     
ConservedQty   = -353.5966   
ENERGY 
Total     = -376.1231     Kinetic   = 1532.7240     Potential = -1908.8471  
VDW       = -1908.8471    QQ        = 0.0000        Bond      = 0.0000      
BondAngle = 0.0000        Torsion   = 0.0000        Tether    = 0.0000      
VIRIAL 
Total     = -1886.0028    Constraint= 0.0000      
VDW       = -1886.0028    QQ        = 0.0000        Bond      = 0.0000      
BondAngle = 0.0000        Torsion   = 0.0000        Tether    = 0.0000      

--------------------------------------------------------------------------------

Step 5400	 Instantaneous Values
System
Temperature(K) = 240.5000    
Pressure(kbar) = 33.9214     
ConservedQty   = -324.8531   
ENERGY 
Total     = -346.9421     Kinetic   = 1532.7240     Potential = -1879.6661  
VDW       = -1879.6661    QQ        = 0.0000        Bond      = 0.0000      
BondAngle = 0.0000        Torsion   = 0.0000        Tether    = 0.0000      
VIRIAL 
Total     = -2234.6195    Constraint= 0.0000      
VDW       = -2234.6195    QQ        = 0.0000        Bond      = 0.0000      
BondAngle = 0.0000        Torsion   = 0.0000        Tether    = 0.0000      

--------------------------------------------------------------------------------

Step 5500	 Instantaneous Values
System
Temperature(K) = 240.5000    
Pressure(kbar) = 28.5637     
ConservedQty   = -354.4236   
ENERGY 
Total     = -379.4034     Kinetic   = 1532.7240     Potential = -1912.1274  
VDW       = -1912.1274    QQ        = 0.0000        Bond      = 0.0000      
BondAngle = 0.0000        Torsion   = 0.0000        Tether    = 0.0000      
VIRIAL 
Total     = -1397.5076    Constraint= 0.0000      
VDW       = -1397.5076    QQ        = 0.0000        Bond      = 0.0000      
BondAngle = 0.0000        Torsion   = 0.0000        Tether    = 0.0000      

--------------------------------------------------------------------------------

Step 5600	 Instantaneous Values
System
Temperature(K) = 240.5000    
Pressure(kbar) = 26.0053     
ConservedQty   = -394.3363   
ENERGY 
Total     = -420.9492     Kinetic   = 1532.7240     Potential = -1953.6733  
VDW       = -1953.6733    QQ        = 0.0000        Bond      = 0.0000      
BondAngle = 0.0000        Torsion   = 0.0000        Tether    = 0.0000      
VIRIAL 
Total     = -997.7658     Constraint= 0.0000      
VDW       = -997.7658     QQ        = 0.0000        Bond      = 0.0000      
BondAngle = 0.0000        Torsion   = 0.0000        Tether    = 0.0000      

--------------------------------------------------------------------------------

Step 5700	 Instantaneous Values
System
Temperature(K) = 240.5000    
Pressure(kbar) = 28.9489     
ConservedQty   = -401.1228   
ENERGY 
Total     = -427.9762     Kinetic   = 1532.7240     Potential = -1960.7002  
VDW       = -1960.7002    QQ        = 0.0000        Bond      = 0.0000      
BondAngle = 0.0000        Torsion   = 0.0000        Tether    = 0.0000      
VIRIAL 
Total     = -1457.6927    Constraint= 0.0000      
VDW       = -1457.6927    QQ        = 0.0000        Bond      = 0.0000      
BondAngle = 0.0000        Torsion   = 0.0000        Tether    = 0.0000      

--------------------------------------------------------------------------------

Step 5800	 Instantaneous Values
System
Temperature(K) = 240.5000    
Pressure(kbar) = 24.2521     
ConservedQty   = -407.9358   
ENERGY 
Total     = -435.3069     Kinetic   = 1532.7240     Potential = -1968.0309  
VDW       = -1968.0309    QQ        = 0.0000        Bond      = 0.0000      
BondAngle = 0.0000        Torsion   = 0.0000        Tether    = 0.0000      
VIRIAL 
Total     = -723.8418     Constraint= 0.0000      
VDW       = -723.8418     QQ        = 0.0000        Bond      = 0.0000      
BondAngle = 0.0000        Torsion   = 0.0000        Tether    = 0.0000      

--------------------------------------------------------------------------------

Step 5900	 Instantaneous Values
System
Temperature(K) = 240.5000    
Pressure(kbar) = 30.8512     
ConservedQty   = -342.5762   
ENERGY 
Total     = -367.1151     Kinetic   = 1532.7240     Potential = -1899.8391  
VDW       = -1899.8391    QQ        = 0.0000        Bond      = 0.0000      
BondAngle = 0.0000        Torsion   = 0.0000        Tether    = 0.0000      
VIRIAL 
Total     = -1754.9126    Constraint= 0.0000      
VDW       = -1754.9126    QQ        = 0.0000        Bond      = 0.0000      
BondAngle = 0.0000        Torsion   = 0.0000        Tether    = 0.0000      

--------------------------------------------------------------------------------

Step 6000	 Instantaneous Values
System
Temperature(K) = 240.5000    
Pressure(kbar) = 30.5028     
ConservedQty   = -346.2446   
ENERGY 
Total     = -369.1629     Kinetic   = 1532.7240     Potential = -1901.8869  
VDW       = -1901.8869    QQ        = 0.0000        Bond      = 0.0000      
BondAngle = 0.0000        Torsion   = 0.0000        Tether    = 0.0000      
VIRIAL 
Total     = -1700.4856    Constraint= 0.0000      
VDW       = -1700.4856    QQ        = 0.0000        Bond      = 0.0000      
BondAngle = 0.0000        Torsion   = 0.0000        Tether    = 0.0000      

--------------------------------------------------------------------------------

Step 6100	 Instantaneous Values
System
Temperature(K) = 240.5000    
Pressure(kbar) = 26.9260     
ConservedQty   = -380.9844   
ENERGY 
Total     = -403.9971     Kinetic   = 1532.7240     Potential = -1936.7212  
VDW       = -1936.7212    QQ        = 0.0000        Bond      = 0.0000      
BondAngle = 0.0000        Torsion   = 0.0000        Tether    = 0.0000      
VIRIAL 
Total     = -1141.6154    Constraint= 0.0000      
VDW       = -1141.6154    QQ        = 0.0000        Bond      = 0.0000      
BondAngle = 0.0000        Torsion   = 0.0000        Tether    = 0.0000      

--------------------------------------------------------------------------------

Step 6200	 Instantaneous Values
System
Temperature(K) = 240.5000    
Pressure(kbar) = 26.4006     
ConservedQty   = -374.1899   
ENERGY 
Total     = -395.7237     Kinetic   = 1532.7240     Potential = -1928.4477  
VDW       = -1928.4477    QQ        = 0.0000        Bond      = 0.0000      
BondAngle = 0.0000        Torsion   = 0.0000        Tether    = 0.0000      
VIRIAL 
Total     = -1059.5346    Constraint= 0.0000      
VDW       = -1059.5346    QQ        = 0.0000        Bond      = 0.0000      
BondAngle = 0.0000        Torsion   = 0.0000        Tether    = 0.0000      

--------------------------------------------------------------------------------

Step 6300	 Instantaneous Values
System
Temperature(K) = 240.5000    
Pressure(kbar) = 26.4389     
ConservedQty   = -391.7384   
ENERGY 
Total     = -415.1913     Kinetic   = 1532.7240     Potential = -1947.9153  
VDW       = -1947.9153    QQ        = 0.0000        Bond      = 0.0000      
BondAngle = 0.0000        Torsion   = 0.0000        Tether    = 0.0000      
VIRIAL 
Total     = -1065.5162    Constraint= 0.0000      
VDW       = -1065.5162    QQ        = 0.0000        Bond      = 0.0000      
BondAngle = 0.0000        Torsion   = 0.0000        Tether    = 0.0000      

--------------------------------------------------------------------------------

Step 6400	 Instantaneous Values
System
Temperature(K) = 240.5000    
Pressure(kbar) = 28.0805     
ConservedQty   = -379.0357   
ENERGY 
Total     = -402.8240     Kinetic   = 1532.7240     Potential = -1935.5480  
VDW       = -1935.5480    QQ        = 0.0000        Bond      = 0.0000      
BondAngle = 0.0000        Torsion   = 0.0000        Tether    = 0.0000      
VIRIAL 
Total     = -1322.0010    Constraint= 0.0000      
VDW       = -1322.0010    QQ        = 0.0000        Bond      = 0.0000      
BondAngle = 0.0000        Torsion   = 0.0000        Tether    = 0.0000      

--------------------------------------------------------------------------------

Step 6500	 Instantaneous Values
System
Temperature(K) = 240.5000    
Pressure(kbar) = 28.4277     
ConservedQty   = -364.6176   
ENERGY 
Total     = -390.1994     Kinetic   = 1532.7240     Potential = -1922.9234  
VDW       = -1922.9234    QQ        = 0.0000        Bond      = 0.0000      
BondAngle = 0.0000        Torsion   = 0.0000        Tether    = 0.0000      
VIRIAL 
Total     = -1376.2592    Constraint= 0.0000      
VDW       = -1376.2592    QQ        = 0.0000        Bond      = 0.0000      
BondAngle = 0.0000        Torsion   = 0.0000        Tether    = 0.0000      

--------------------------------------------------------------------------------

Step 6600	 Instantaneous Values
System
Temperature(K) = 240.5000    
Pressure(kbar) = 28.9310     
ConservedQty   = -349.9238   
ENERGY 
Total     = -377.0306     Kinetic   = 1532.7240     Potential = -1909.7546  
VDW       = -1909.7546    QQ        = 0.0000        Bond      = 0.0000      
BondAngle = 0.0000        Torsion   = 0.0000        Tether    = 0.0000      
VIRIAL 
Total     = -1454.8879    Constraint= 0.0000      
VDW       = -1454.8879    QQ        = 0.0000        Bond      = 0.0000      
BondAngle = 0.0000        Torsion   = 0.0000        Tether    = 0.0000      

--------------------------------------------------------------------------------

Step 6700	 Instantaneous Values
System
Temperature(K) = 240.5000    
Pressure(kbar) = 27.0390     
ConservedQty   = -362.3660   
ENERGY 
Total     = -389.6982     Kinetic   = 1532.7240     Potential = -1922.4222  
VDW       = -1922.4222    QQ        = 0.0000        Bond      = 0.0000      
BondAngle = 0.0000        Torsion   = 0.0000        Tether    = 0.0000      
VIRIAL 
Total     = -1159.2678    Constraint= 0.0000      
VDW       = -1159.2678    QQ        = 0.0000        Bond      = 0.0000      
BondAngle = 0.0000        Torsion   = 0.0000        Tether    = 0.0000      

--------------------------------------------------------------------------------

Step 6800	 Instantaneous Values
System
Temperature(K) = 240.5000    
Pressure(kbar) = 35.2472     
ConservedQty   = -296.2355   
ENERGY 
Total     = -324.1207     Kinetic   = 1532.7240     Potential = -1856.8448  
VDW       = -1856.8448    QQ        = 0.0000        Bond      = 0.0000      
BondAngle = 0.0000        Torsion   = 0.0000        Tether    = 0.0000      
VIRIAL 
Total     = -2441.7750    Constraint= 0.0000      
VDW       = -2441.7750    QQ        = 0.0000        Bond      = 0.0000      
BondAngle = 0.0000        Torsion   = 0.0000        Tether    = 0.0000      

--------------------------------------------------------------------------------

Step 6900	 Instantaneous Values
System
Temperature(K) = 240.5000    
Pressure(kbar) = 29.3925     
ConservedQty   = -341.3822   
ENERGY 
Total     = -369.2924     Kinetic   = 1532.7240     Potential = -1902.0164  
VDW       = -1902.0164    QQ        = 0.0000        Bond      = 0.0000      
BondAngle = 0.0000        Torsion   = 0.0000        Tether    = 0.0000      
VIRIAL 
Total     = -1527.0051    Constraint= 0.0000      
VDW       = -1527.0051    QQ        = 0.0000        Bond      = 0.0000      
BondAngle = 0.0000        Torsion   = 0.0000        Tether    = 0.0000      

--------------------------------------------------------------------------------

Step 7000	 Instantaneous Values
System
Temperature(K) = 240.5000    
Pressure(kbar) = 30.9375     
ConservedQty   = -375.9584   
ENERGY 
Total     = -404.0875     Kinetic   = 1532.7240     Potential = -1936.8115  
VDW       = -1936.8115    QQ        = 0.0000        Bond      = 0.0000      
BondAngle = 0.0000        Torsion   = 0.0000        Tether    = 0.0000      
VIRIAL 
Total     = -1768.3949    Constraint= 0.0000      
VDW       = -1768.3949    QQ        = 0.0000        Bond      = 0.0000      
BondAngle = 0.0000        Torsion   = 0.0000        Tether    = 0.0000      

--------------------------------------------------------------------------------

Step 7100	 Instantaneous Values
System
Temperature(K) = 240.5000    
Pressure(kbar) = 31.3480     
ConservedQty   = -360.5657   
ENERGY 
Total     = -388.9451     Kinetic   = 1532.7240     Potential = -1921.6691  
VDW       = -1921.6691    QQ        = 0.0000        Bond      = 0.0000      
BondAngle = 0.0000        Torsion   = 0.0000        Tether    = 0.0000      
VIRIAL 
Total     = -1832.5329    Constraint= 0.0000      
VDW       = -1832.5329    QQ        = 0.0000        Bond      = 0.0000      
BondAngle = 0.0000        Torsion   = 0.0000        Tether    = 0.0000      

--------------------------------------------------------------------------------

Step 7200	 Instantaneous Values
System
Temperature(K) = 240.5000    
Pressure(kbar) = 30.4202     
ConservedQty   = -354.5472   
ENERGY 
Total     = -381.6873     Kinetic   = 1532.7240     Potential = -1914.4113  
VDW       = -1914.4113    QQ        = 0.0000        Bond      = 0.0000      
BondAngle = 0.0000        Torsion   = 0.0000        Tether    = 0.0000      
VIRIAL 
Total     = -1687.5726    Constraint= 0.0000      
VDW       = -1687.5726    QQ        = 0.0000        Bond      = 0.0000      
BondAngle = 0.0000        Torsion   = 0.0000        Tether    = 0.0000      

--------------------------------------------------------------------------------

Step 7300	 Instantaneous Values
System
Temperature(K) = 240.5000    
Pressure(kbar) = 23.9749     
ConservedQty   = -398.0031   
ENERGY 
Total     = -425.0309     Kinetic   = 1532.7240     Potential = -1957.7549  
VDW       = -1957.7549    QQ        = 0.0000        Bond      = 0.0000      
BondAngle = 0.0000        Torsion   = 0.0000        Tether    = 0.0000      
VIRIAL 
Total     = -680.5246     Constraint= 0.0000      
VDW       = -680.5246     QQ        = 0.0000        Bond      = 0.0000      
BondAngle = 0.0000        Torsion   = 0.0000        Tether    = 0.0000      

--------------------------------------------------------------------------------

Step 7400	 Instantaneous Values
System
Temperature(K) = 240.5000    
Pressure(kbar) = 26.5207     
ConservedQty   = -376.9526   
ENERGY 
Total     = -401.1863     Kinetic   = 1532.7240     Potential = -1933.9103  
VDW       = -1933.9103    QQ        = 0.0000        Bond      = 0.0000      
BondAngle = 0.0000        Torsion   = 0.0000        Tether    = 0.0000      
VIRIAL 
Total     = -1078.2889    Constraint= 0.0000      
VDW       = -1078.2889    QQ        = 0.0000        Bond      = 0.0000      
BondAngle = 0.0000        Torsion   = 0.0000        Tether    = 0.0000      

--------------------------------------------------------------------------------

Step 7500	 Instantaneous Values
System
Temperature(K) = 240.5000    
Pressure(kbar) = 27.3649     
ConservedQty   = -394.1103   
ENERGY 
Total     = -419.0741     Kinetic   = 1532.7240     Potential = -1951.7981  
VDW       = -1951.7981    QQ        = 0.0000        Bond      = 0.0000      
BondAngle = 0.0000        Torsion   = 0.0000        Tether    = 0.0000      
VIRIAL 
Total     = -1210.1982    Constraint= 0.0000      
VDW       = -1210.1982    QQ        = 0.0000        Bond      = 0.0000      
BondAngle = 0.0000        Torsion   = 0.0000        Tether    = 0.0000      

--------------------------------------------------------------------------------

Step 7600	 Instantaneous Values
System
Temperature(K) = 240.5000    
Pressure(kbar) = 28.8764     
ConservedQty   = -359.2384   
ENERGY 
Total     = -383.5809     Kinetic   = 1532.7240     Potential = -1916.3050  
VDW       = -1916.3050    QQ        = 0.0000        Bond      = 0.0000      
BondAngle = 0.0000        Torsion   = 0.0000        Tether    = 0.0000      
VIRIAL 
Total     = -1446.3680    Constraint= 0.0000      
VDW       = -1446.3680    QQ        = 0.0000        Bond      = 0.0000      
BondAngle = 0.0000        Torsion   = 0.0000        Tether    = 0.0000      

--------------------------------------------------------------------------------

Step 7700	 Instantaneous Values
System
Temperature(K) = 240.5000    
Pressure(kbar) = 29.1195     
ConservedQty   = -362.6847   
ENERGY 
Total     = -385.9601     Kinetic   = 1532.7240     Potential = -1918.6841  
VDW       = -1918.6841    QQ        = 0.0000        Bond      = 0.0000      
BondAngle = 0.0000        Torsion   = 0.0000        Tether    = 0.0000      
VIRIAL 
Total     = -1484.3448    Constraint= 0.0000      
VDW       = -1484.3448    QQ        = 0.0000        Bond      = 0.0000      
BondAngle = 0.0000        Torsion   = 0.0000        Tether    = 0.0000      

--------------------------------------------------------------------------------

Step 7800	 Instantaneous Values
System
Temperature(K) = 240.5000    
Pressure(kbar) = 34.6893     
ConservedQty   = -336.2413   
ENERGY 
Total     = -358.1393     Kinetic   = 1532.7240     Potential = -1890.8633  
VDW       = -1890.8633    QQ        = 0.0000        Bond      = 0.0000      
BondAngle = 0.0000        Torsion   = 0.0000        Tether    = 0.0000      
VIRIAL 
Total     = -2354.6079    Constraint= 0.0000      
VDW       = -2354.6079    QQ        = 0.0000        Bond      = 0.0000      
BondAngle = 0.0000        Torsion   = 0.0000        Tether    = 0.0000      

--------------------------------------------------------------------------------

Step 7900	 Instantaneous Values
System
Temperature(K) = 240.5000    
Pressure(kbar) = 32.4278     
ConservedQty   = -342.7641   
ENERGY 
Total     = -363.8215     Kinetic   = 1532.7240     Potential = -1896.5455  
VDW       = -1896.5455    QQ        = 0.0000        Bond      = 0.0000      
BondAngle = 0.0000        Torsion   = 0.0000        Tether    = 0.0000      
VIRIAL 
Total     = -2001.2464    Constraint= 0.0000      
VDW       = -2001.2464    QQ        = 0.0000        Bond      = 0.0000      
BondAngle = 0.0000        Torsion   = 0.0000        Tether    = 0.0000      

--------------------------------------------------------------------------------

Step 8000	 Instantaneous Values
System
Temperature(K) = 240.5000    
Pressure(kbar) = 32.8632     
ConservedQty   = -337.0752   
ENERGY 
Total     = -358.7446     Kinetic   = 1532.7240     Potential = -1891.4686  
VDW       = -1891.4686    QQ        = 0.0000        Bond      = 0.0000      
BondAngle = 0.0000        Torsion   = 0.0000        Tether    = 0.0000      
VIRIAL 
Total     = -2069.2776    Constraint= 0.0000      
VDW       = -2069.2776    QQ        = 0.0000        Bond      = 0.0000      
BondAngle = 0.0000        Torsion   = 0.0000        Tether    = 0.0000      

--------------------------------------------------------------------------------

Step 8100	 Instantaneous Values
System
Temperature(K) = 240.5000    
Pressure(kbar) = 25.1865     
ConservedQty   = -379.6506   
ENERGY 
Total     = -401.3315     Kinetic   = 1532.7240     Potential = -1934.0555  
VDW       = -1934.0555    QQ        = 0.0000        Bond      = 0.0000      
BondAngle = 0.0000        Torsion   = 0.0000        Tether    = 0.0000      
VIRIAL 
Total     = -869.8301     Constraint= 0.0000      
VDW       = -869.8301     QQ        = 0.0000        Bond      = 0.0000      
BondAngle = 0.0000        Torsion   = 0.0000        Tether    = 0.0000      

--------------------------------------------------------------------------------

Step 8200	 Instantaneous Values
System
Temperature(K) = 240.5000    
Pressure(kbar) = 24.8749     
ConservedQty   = -395.4929   
ENERGY 
Total     = -418.3320     Kinetic   = 1532.7240     Potential = -1951.0560  
VDW       = -1951.0560    QQ        = 0.0000        Bond      = 0.0000      
BondAngle = 0.0000        Torsion   = 0.0000        Tether    = 0.0000      
VIRIAL 
Total     = -821.1492     Constraint= 0.0000      
VDW       = -821.1492     QQ        = 0.0000        Bond      = 0.0000      
BondAngle = 0.0000        Torsion   = 0.0000        Tether    = 0.0000      

--------------------------------------------------------------------------------

Step 8300	 Instantaneous Values
System
Temperature(K) = 240.5000    
Pressure(kbar) = 33.0682     
ConservedQty   = -340.5539   
ENERGY 
Total     = -363.2802     Kinetic   = 1532.7240     Potential = -1896.0042  
VDW       = -1896.0042    QQ        = 0.0000        Bond      = 0.0000      
BondAngle = 0.0000        Torsion   = 0.0000        Tether    = 0.0000      
VIRIAL 
Total     = -2101.3028    Constraint= 0.0000      
VDW       = -2101.3028    QQ        = 0.0000        Bond      = 0.0000      
BondAngle = 0.0000        Torsion   = 0.0000        Tether    = 0.0000      

--------------------------------------------------------------------------------

Step 8400	 Instantaneous Values
System
Temperature(K) = 240.5000    
Pressure(kbar) = 26.5345     
ConservedQty   = -382.8680   
ENERGY 
Total     = -405.5713     Kinetic   = 1532.7240     Potential = -1938.2953  
VDW       = -1938.2953    QQ        = 0.0000        Bond      = 0.0000      
BondAngle = 0.0000        Torsion   = 0.0000        Tether    = 0.0000      
VIRIAL 
Total     = -1080.4496    Constraint= 0.0000      
VDW       = -1080.4496    QQ        = 0.0000        Bond      = 0.0000      
BondAngle = 0.0000        Torsion   = 0.0000        Tether    = 0.0000      

--------------------------------------------------------------------------------

Step 8500	 Instantaneous Values
System
Temperature(K) = 240.5000    
Pressure(kbar) = 24.6320     
ConservedQty   = -394.0752   
ENERGY 
Total     = -420.7196     Kinetic   = 1532.7240     Potential = -1953.4436  
VDW       = -1953.4436    QQ        = 0.0000        Bond      = 0.0000      
BondAngle = 0.0000        Torsion   = 0.0000        Tether    = 0.0000      
VIRIAL 
Total     = -783.1980     Constraint= 0.0000      
VDW       = -783.1980     QQ        = 0.0000        Bond      = 0.0000      
BondAngle = 0.0000        Torsion   = 0.0000        Tether    = 0.0000      

--------------------------------------------------------------------------------

Step 8600	 Instantaneous Values
System
Temperature(K) = 240.5000    
Pressure(kbar) = 28.8237     
ConservedQty   = -360.7247   
ENERGY 
Total     = -388.1752     Kinetic   = 1532.7240     Potential = -1920.8992  
VDW       = -1920.8992    QQ        = 0.0000        Bond      = 0.0000      
BondAngle = 0.0000        Torsion   = 0.0000        Tether    = 0.0000      
VIRIAL 
Total     = -1438.1212    Constraint= 0.0000      
VDW       = -1438.1212    QQ        = 0.0000        Bond      = 0.0000      
BondAngle = 0.0000        Torsion   = 0.0000        Tether    = 0.0000      

--------------------------------------------------------------------------------

Step 8700	 Instantaneous Values
System
Temperature(K) = 240.5000    
Pressure(kbar) = 29.4892     
ConservedQty   = -353.7249   
ENERGY 
Total     = -382.5882     Kinetic   = 1532.7240     Potential = -1915.3122  
VDW       = -1915.3122    QQ        = 0.0000        Bond      = 0.0000      
BondAngle = 0.0000        Torsion   = 0.0000        Tether    = 0.0000      
VIRIAL 
Total     = -1542.1008    Constraint= 0.0000      
VDW       = -1542.1008    QQ        = 0.0000        Bond      = 0.0000      
BondAngle = 0.0000        Torsion   = 0.0000        Tether    = 0.0000      

--------------------------------------------------------------------------------

Step 8800	 Instantaneous Values
System
Temperature(K) = 240.5000    
Pressure(kbar) = 29.0188     
ConservedQty   = -354.7308   
ENERGY 
Total     = -385.0599     Kinetic   = 1532.7240     Potential = -1917.7839  
VDW       = -1917.7839    QQ        = 0.0000        Bond      = 0.0000      
BondAngle = 0.0000        Torsion   = 0.0000        Tether    = 0.0000      
VIRIAL 
Total     = -1468.6160    Constraint= 0.0000      
VDW       = -1468.6160    QQ        = 0.0000        Bond      = 0.0000      
BondAngle = 0.0000        Torsion   = 0.0000        Tether    = 0.0000      

--------------------------------------------------------------------------------

Step 8900	 Instantaneous Values
System
Temperature(K) = 240.5000    
Pressure(kbar) = 22.5976     
ConservedQty   = -416.2283   
ENERGY 
Total     = -447.5723     Kinetic   = 1532.7240     Potential = -1980.2963  
VDW       = -1980.2963    QQ        = 0.0000        Bond      = 0.0000      
BondAngle = 0.0000        Torsion   = 0.0000        Tether    = 0.0000      
VIRIAL 
Total     = -465.3326     Constraint= 0.0000      
VDW       = -465.3326     QQ        = 0.0000        Bond      = 0.0000      
BondAngle = 0.0000        Torsion   = 0.0000        Tether    = 0.0000      

--------------------------------------------------------------------------------

Step 9000	 Instantaneous Values
System
Temperature(K) = 240.5000    
Pressure(kbar) = 29.2943     
ConservedQty   = -356.9438   
ENERGY 
Total     = -386.2849     Kinetic   = 1532.7240     Potential = -1919.0089  
VDW       = -1919.0089    QQ        = 0.0000        Bond      = 0.0000      
BondAngle = 0.0000        Torsion   = 0.0000        Tether    = 0.0000      
VIRIAL 
Total     = -1511.6621    Constraint= 0.0000      
VDW       = -1511.6621    QQ        = 0.0000        Bond      = 0.0000      
BondAngle = 0.0000        Torsion   = 0.0000        Tether    = 0.0000      

--------------------------------------------------------------------------------

Step 9100	 Instantaneous Values
System
Temperature(K) = 240.5000    
Pressure(kbar) = 26.1139     
ConservedQty   = -408.8441   
ENERGY 
Total     = -437.4922     Kinetic   = 1532.7240     Potential = -1970.2163  
VDW       = -1970.2163    QQ        = 0.0000        Bond      = 0.0000      
BondAngle = 0.0000        Torsion   = 0.0000        Tether    = 0.0000      
VIRIAL 
Total     = -1014.7260    Constraint= 0.0000      
VDW       = -1014.7260    QQ        = 0.0000        Bond      = 0.0000      
BondAngle = 0.0000        Torsion   = 0.0000        Tether    = 0.0000      

--------------------------------------------------------------------------------

Step 9200	 Instantaneous Values
System
Temperature(K) = 240.5000    
Pressure(kbar) = 34.7925     
ConservedQty   = -322.1208   
ENERGY 
Total     = -348.6407     Kinetic   = 1532.7240     Potential = -1881.3647  
VDW       = -1881.3647    QQ        = 0.0000        Bond      = 0.0000      
BondAngle = 0.0000        Torsion   = 0.0000        Tether    = 0.0000      
VIRIAL 
Total     = -2370.7293    Constraint= 0.0000      
VDW       = -2370.7293    QQ        = 0.0000        Bond      = 0.0000      
BondAngle = 0.0000        Torsion   = 0.0000        Tether    = 0.0000      

--------------------------------------------------------------------------------

Step 9300	 Instantaneous Values
System
Temperature(K) = 240.5000    
Pressure(kbar) = 27.5670     
ConservedQty   = -363.4258   
ENERGY 
Total     = -390.8577     Kinetic   = 1532.7240     Potential = -1923.5817  
VDW       = -1923.5817    QQ        = 0.0000        Bond      = 0.0000      
BondAngle = 0.0000        Torsion   = 0.0000        Tether    = 0.0000      
VIRIAL 
Total     = -1241.7766    Constraint= 0.0000      
VDW       = -1241.7766    QQ        = 0.0000        Bond      = 0.0000      
BondAngle = 0.0000        Torsion   = 0.0000        Tether    = 0.0000      

--------------------------------------------------------------------------------

Step 9400	 Instantaneous Values
System
Temperature(K) = 240.5000    
Pressure(kbar) = 28.8205     
ConservedQty   = -367.4631   
ENERGY 
Total     = -393.7914     Kinetic   = 1532.7240     Potential = -1926.5154  
VDW       = -1926.5154    QQ        = 0.0000        Bond      = 0.0000      
BondAngle = 0.0000        Torsion   = 0.0000        Tether    = 0.0000      
VIRIAL 
Total     = -1437.6310    Constraint= 0.0000      
VDW       = -1437.6310    QQ        = 0.0000        Bond      = 0.0000      
BondAngle = 0.0000        Torsion   = 0.0000        Tether    = 0.0000      

--------------------------------------------------------------------------------

Step 9500	 Instantaneous Values
System
Temperature(K) = 240.5000    
Pressure(kbar) = 31.2333     
ConservedQty   = -334.2156   
ENERGY 
Total     = -360.2778     Kinetic   = 1532.7240     Potential = -1893.0018  
VDW       = -1893.0018    QQ        = 0.0000        Bond      = 0.0000      
BondAngle = 0.0000        Torsion   = 0.0000        Tether    = 0.0000      
VIRIAL 
Total     = -1814.6179    Constraint= 0.0000      
VDW       = -1814.6179    QQ        = 0.0000        Bond      = 0.0000      
BondAngle = 0.0000        Torsion   = 0.0000        Tether    = 0.0000      

--------------------------------------------------------------------------------

Step 9600	 Instantaneous Values
System
Temperature(K) = 240.5000    
Pressure(kbar) = 29.0925     
ConservedQty   = -353.0950   
ENERGY 
Total     = -379.6558     Kinetic   = 1532.7240     Potential = -1912.3798  
VDW       = -1912.3798    QQ        = 0.0000        Bond      = 0.0000      
BondAngle = 0.0000        Torsion   = 0.0000        Tether    = 0.0000      
VIRIAL 
Total     = -1480.1193    Constraint= 0.0000      
VDW       = -1480.1193    QQ        = 0.0000        Bond      = 0.0000      
BondAngle = 0.0000        Torsion   = 0.0000        Tether    = 0.0000      

--------------------------------------------------------------------------------

Step 9700	 Instantaneous Values
System
Temperature(K) = 240.5000    
Pressure(kbar) = 29.8272     
ConservedQty   = -336.8552   
ENERGY 
Total     = -364.6645     Kinetic   = 1532.7240     Potential = -1897.3885  
VDW       = -1897.3885    QQ        = 0.0000        Bond      = 0.0000      
BondAngle = 0.0000        Torsion   = 0.0000        Tether    = 0.0000      
VIRIAL 
Total     = -1594.9179    Constraint= 0.0000      
VDW       = -1594.9179    QQ        = 0.0000        Bond      = 0.0000      
BondAngle = 0.0000        Torsion   = 0.0000        Tether    = 0.0000      

--------------------------------------------------------------------------------

Step 9800	 Instantaneous Values
System
Temperature(K) = 240.5000    
Pressure(kbar) = 26.8020     
ConservedQty   = -367.5097   
ENERGY 
Total     = -394.7155     Kinetic   = 1532.7240     Potential = -1927.4395  
VDW       = -1927.4395    QQ        = 0.0000        Bond      = 0.0000      
BondAngle = 0.0000        Torsion   = 0.0000        Tether    = 0.0000      
VIRIAL 
Total     = -1122.2422    Constraint= 0.0000      
VDW       = -1122.2422    QQ        = 0.0000        Bond      = 0.0000      
BondAngle = 0.0000        Torsion   = 0.0000        Tether    = 0.0000      

--------------------------------------------------------------------------------

Step 9900	 Instantaneous Values
System
Temperature(K) = 240.5000    
Pressure(kbar) = 24.3747     
ConservedQty   = -385.5814   
ENERGY 
Total     = -413.6554     Kinetic   = 1532.7240     Potential = -1946.3794  
VDW       = -1946.3794    QQ        = 0.0000        Bond      = 0.0000      
BondAngle = 0.0000        Torsion   = 0.0000        Tether    = 0.0000      
VIRIAL 
Total     = -742.9844     Constraint= 0.0000      
VDW       = -742.9844     QQ        = 0.0000        Bond      = 0.0000      
BondAngle = 0.0000        Torsion   = 0.0000        Tether    = 0.0000      

--------------------------------------------------------------------------------

Step 10000	 Instantaneous Values
System
Temperature(K) = 240.5000    
Pressure(kbar) = 27.7250     
ConservedQty   = -347.2204   
ENERGY 
Total     = -371.9438     Kinetic   = 1532.7240     Potential = -1904.6678  
VDW       = -1904.6678    QQ        = 0.0000        Bond      = 0.0000      
BondAngle = 0.0000        Torsion   = 0.0000        Tether    = 0.0000      
VIRIAL 
Total     = -1266.4517    Constraint= 0.0000      
VDW       = -1266.4517    QQ        = 0.0000        Bond      = 0.0000      
BondAngle = 0.0000        Torsion   = 0.0000        Tether    = 0.0000      

--------------------------------------------------------------------------------

Step 10100	 Instantaneous Values
System
Temperature(K) = 248.6481    
Pressure(kbar) = 24.8344     
ConservedQty   = -348.4124   
ENERGY 
Total     = -370.8641     Kinetic   = 1584.6525     Potential = -1955.5166  
VDW       = -1955.5166    QQ        = 0.0000        Bond      = 0.0000      
BondAngle = 0.0000        Torsion   = 0.0000        Tether    = 0.0000      
VIRIAL 
Total     = -710.9617     Constraint= 0.0000      
VDW       = -710.9617     QQ        = 0.0000        Bond      = 0.0000      
BondAngle = 0.0000        Torsion   = 0.0000        Tether    = 0.0000      

MeanSquaredDisplacement
Species1
Atom 1: 0.575883 
--------------------------------------------------------------------------------

Step 10200	 Instantaneous Values
System
Temperature(K) = 244.9279    
Pressure(kbar) = 26.1459     
ConservedQty   = -347.2031   
ENERGY 
Total     = -402.7427     Kinetic   = 1560.9434     Potential = -1963.6861  
VDW       = -1963.6861    QQ        = 0.0000        Bond      = 0.0000      
BondAngle = 0.0000        Torsion   = 0.0000        Tether    = 0.0000      
VIRIAL 
Total     = -963.2960     Constraint= 0.0000      
VDW       = -963.2960     QQ        = 0.0000        Bond      = 0.0000      
BondAngle = 0.0000        Torsion   = 0.0000        Tether    = 0.0000      

MeanSquaredDisplacement
Species1
Atom 1: 1.33518 
--------------------------------------------------------------------------------

Step 10300	 Instantaneous Values
System
Temperature(K) = 242.9549    
Pressure(kbar) = 29.5145     
ConservedQty   = -347.5879   
ENERGY 
Total     = -366.0220     Kinetic   = 1548.3690     Potential = -1914.3910  
VDW       = -1914.3910    QQ        = 0.0000        Bond      = 0.0000      
BondAngle = 0.0000        Torsion   = 0.0000        Tether    = 0.0000      
VIRIAL 
Total     = -1514.7782    Constraint= 0.0000      
VDW       = -1514.7782    QQ        = 0.0000        Bond      = 0.0000      
BondAngle = 0.0000        Torsion   = 0.0000        Tether    = 0.0000      

MeanSquaredDisplacement
Species1
Atom 1: 2.15345 
--------------------------------------------------------------------------------

Step 10400	 Instantaneous Values
System
Temperature(K) = 237.7374    
Pressure(kbar) = 30.1965     
ConservedQty   = -346.8497   
ENERGY 
Total     = -389.6028     Kinetic   = 1515.1180     Potential = -1904.7209  
VDW       = -1904.7209    QQ        = 0.0000        Bond      = 0.0000      
BondAngle = 0.0000        Torsion   = 0.0000        Tether    = 0.0000      
VIRIAL 
Total     = -1687.8334    Constraint= 0.0000      
VDW       = -1687.8334    QQ        = 0.0000        Bond      = 0.0000      
BondAngle = 0.0000        Torsion   = 0.0000        Tether    = 0.0000      

MeanSquaredDisplacement
Species1
Atom 1: 3.02196 
--------------------------------------------------------------------------------

Step 10500	 Instantaneous Values
System
Temperature(K) = 243.0529    
Pressure(kbar) = 23.7659     
ConservedQty   = -346.4995   
ENERGY 
Total     = -390.6330     Kinetic   = 1548.9938     Potential = -1939.6268  
VDW       = -1939.6268    QQ        = 0.0000        Bond      = 0.0000      
BondAngle = 0.0000        Torsion   = 0.0000        Tether    = 0.0000      
VIRIAL 
Total     = -615.3333     Constraint= 0.0000      
VDW       = -615.3333     QQ        = 0.0000        Bond      = 0.0000      
BondAngle = 0.0000        Torsion   = 0.0000        Tether    = 0.0000      

MeanSquaredDisplacement
Species1
Atom 1: 3.94318 
--------------------------------------------------------------------------------

Step 10600	 Instantaneous Values
System
Temperature(K) = 239.0639    
Pressure(kbar) = 28.8252     
ConservedQty   = -346.3201   
ENERGY 
Total     = -375.7902     Kinetic   = 1523.5714     Potential = -1899.3616  
VDW       = -1899.3616    QQ        = 0.0000        Bond      = 0.0000      
BondAngle = 0.0000        Torsion   = 0.0000        Tether    = 0.0000      
VIRIAL 
Total     = -1456.6609    Constraint= 0.0000      
VDW       = -1456.6609    QQ        = 0.0000        Bond      = 0.0000      
BondAngle = 0.0000        Torsion   = 0.0000        Tether    = 0.0000      

MeanSquaredDisplacement
Species1
Atom 1: 5.01469 
--------------------------------------------------------------------------------

Step 10700	 Instantaneous Values
System
Temperature(K) = 243.3231    
Pressure(kbar) = 25.7476     
ConservedQty   = -347.5583   
ENERGY 
Total     = -389.5922     Kinetic   = 1550.7157     Potential = -1940.3079  
VDW       = -1940.3079    QQ        = 0.0000        Bond      = 0.0000      
BondAngle = 0.0000        Torsion   = 0.0000        Tether    = 0.0000      
VIRIAL 
Total     = -921.5149     Constraint= 0.0000      
VDW       = -921.5149     QQ        = 0.0000        Bond      = 0.0000      
BondAngle = 0.0000        Torsion   = 0.0000        Tether    = 0.0000      

MeanSquaredDisplacement
Species1
Atom 1: 5.82848 
--------------------------------------------------------------------------------

Step 10800	 Instantaneous Values
System
Temperature(K) = 244.1930    
Pressure(kbar) = 31.6484     
ConservedQty   = -346.4563   
ENERGY 
Total     = -341.5262     Kinetic   = 1556.2596     Potential = -1897.7858  
VDW       = -1897.7858    QQ        = 0.0000        Bond      = 0.0000      
BondAngle = 0.0000        Torsion   = 0.0000        Tether    = 0.0000      
VIRIAL 
Total     = -1832.3962    Constraint= 0.0000      
VDW       = -1832.3962    QQ        = 0.0000        Bond      = 0.0000      
BondAngle = 0.0000        Torsion   = 0.0000        Tether    = 0.0000      

MeanSquaredDisplacement
Species1
Atom 1: 6.66657 
--------------------------------------------------------------------------------

Step 10900	 Instantaneous Values
System
Temperature(K) = 239.7673    
Pressure(kbar) = 20.9244     
ConservedQty   = -346.8452   
ENERGY 
Total     = -435.3622     Kinetic   = 1528.0545     Potential = -1963.4166  
VDW       = -1963.4166    QQ        = 0.0000        Bond      = 0.0000      
BondAngle = 0.0000        Torsion   = 0.0000        Tether    = 0.0000      
VIRIAL 
Total     = -213.2411     Constraint= 0.0000      
VDW       = -213.2411     QQ        = 0.0000        Bond      = 0.0000      
BondAngle = 0.0000        Torsion   = 0.0000        Tether    = 0.0000      

MeanSquaredDisplacement
Species1
Atom 1: 7.6129 
--------------------------------------------------------------------------------

Step 11000	 Instantaneous Values
System
Temperature(K) = 248.5297    
Pressure(kbar) = 30.3887     
ConservedQty   = -347.2617   
ENERGY 
Total     = -313.3427     Kinetic   = 1583.8982     Potential = -1897.2409  
VDW       = -1897.2409    QQ        = 0.0000        Bond      = 0.0000      
BondAngle = 0.0000        Torsion   = 0.0000        Tether    = 0.0000      
VIRIAL 
Total     = -1580.3100    Constraint= 0.0000      
VDW       = -1580.3100    QQ        = 0.0000        Bond      = 0.0000      
BondAngle = 0.0000        Torsion   = 0.0000        Tether    = 0.0000      

MeanSquaredDisplacement
Species1
Atom 1: 8.49293 
--------------------------------------------------------------------------------

Step 11000	Averages
System
CELL
   A          B          C          Alpha      Beta       Gamma   
    9.4850     9.4850     9.4850    90.0000    90.0000    90.0000
Lattice vectors
   9.4850000000e+00    0.0000000000e+00    0.0000000000e+00
   6.1230317691e-38    9.4850000000e+00    0.0000000000e+00
   6.1230317691e-38    6.1230317691e-38    9.4850000000e+00
Cell Volume: 853.32   
Cell Type: Cubic    PBCType: CUBIC

Temperature(K) = 243.2198    
Pressure(kbar) = 27.1992     
ConservedQty   = -347.0994   
ENERGY 
Total     = -377.5478     Kinetic   = 1550.0576     Potential = -1927.6054  
VDW       = -1927.6054    QQ        = 0.0000        Bond      = 0.0000      
BondAngle = 0.0000        Torsion   = 0.0000        Tether    = 0.0000      
VIRIAL 
Total     = -1149.6326    Constraint= 0.0000      
VDW       = -1149.6326    QQ        = 0.0000        Bond      = 0.0000      
BondAngle = 0.0000        Torsion   = 0.0000        Tether    = 0.0000      

--------------------------------------------------------------------------------

--------------------------------------------------------------------------------

Step 11100	 Instantaneous Values
System
Temperature(K) = 235.7422    
Pressure(kbar) = 25.1999     
ConservedQty   = -347.1517   
ENERGY 
Total     = -445.6158     Kinetic   = 1502.4021     Potential = -1948.0178  
VDW       = -1948.0178    QQ        = 0.0000        Bond      = 0.0000      
BondAngle = 0.0000        Torsion   = 0.0000        Tether    = 0.0000      
VIRIAL 
Total     = -932.5609     Constraint= 0.0000      
VDW       = -932.5609     QQ        = 0.0000        Bond      = 0.0000      
BondAngle = 0.0000        Torsion   = 0.0000        Tether    = 0.0000      

MeanSquaredDisplacement
Species1
Atom 1: 9.42441 
--------------------------------------------------------------------------------

Step 11200	 Instantaneous Values
System
Temperature(K) = 247.6513    
Pressure(kbar) = 29.3604     
ConservedQty   = -347.1726   
ENERGY 
Total     = -333.6638     Kinetic   = 1578.3001     Potential = -1911.9639  
VDW       = -1911.9639    QQ        = 0.0000        Bond      = 0.0000      
BondAngle = 0.0000        Torsion   = 0.0000        Tether    = 0.0000      
VIRIAL 
Total     = -1430.8277    Constraint= 0.0000      
VDW       = -1430.8277    QQ        = 0.0000        Bond      = 0.0000      
BondAngle = 0.0000        Torsion   = 0.0000        Tether    = 0.0000      

MeanSquaredDisplacement
Species1
Atom 1: 10.2485 
--------------------------------------------------------------------------------

Step 11300	 Instantaneous Values
System
Temperature(K) = 234.0659    
Pressure(kbar) = 27.1561     
ConservedQty   = -346.7211   
ENERGY 
Total     = -422.6702     Kinetic   = 1491.7191     Potential = -1914.3893  
VDW       = -1914.3893    QQ        = 0.0000        Bond      = 0.0000      
BondAngle = 0.0000        Torsion   = 0.0000        Tether    = 0.0000      
VIRIAL 
Total     = -1259.5841    Constraint= 0.0000      
VDW       = -1259.5841    QQ        = 0.0000        Bond      = 0.0000      
BondAngle = 0.0000        Torsion   = 0.0000        Tether    = 0.0000      

MeanSquaredDisplacement
Species1
Atom 1: 11.0412 
--------------------------------------------------------------------------------

Step 11400	 Instantaneous Values
System
Temperature(K) = 240.8256    
Pressure(kbar) = 29.0673     
ConservedQty   = -345.9596   
ENERGY 
Total     = -373.9089     Kinetic   = 1534.7991     Potential = -1908.7080  
VDW       = -1908.7080    QQ        = 0.0000        Bond      = 0.0000      
BondAngle = 0.0000        Torsion   = 0.0000        Tether    = 0.0000      
VIRIAL 
Total     = -1472.0408    Constraint= 0.0000      
[...]
VDW       = -1916.1946    QQ        = 0.0000        Bond      = 0.0000      
BondAngle = 0.0000        Torsion   = 0.0000        Tether    = 0.0000      
VIRIAL 
Total     = -1758.5953    Constraint= 0.0000      
VDW       = -1758.5953    QQ        = 0.0000        Bond      = 0.0000      
BondAngle = 0.0000        Torsion   = 0.0000        Tether    = 0.0000      

MeanSquaredDisplacement
Species1
Atom 1: 451.031 
--------------------------------------------------------------------------------

Step 58000	 Instantaneous Values
System
Temperature(K) = 240.5306    
Pressure(kbar) = 28.2850     
ConservedQty   = -347.8566   
ENERGY 
Total     = -395.7987     Kinetic   = 1532.9193     Potential = -1928.7180  
VDW       = -1928.7180    QQ        = 0.0000        Bond      = 0.0000      
BondAngle = 0.0000        Torsion   = 0.0000        Tether    = 0.0000      
VIRIAL 
Total     = -1353.5634    Constraint= 0.0000      
VDW       = -1353.5634    QQ        = 0.0000        Bond      = 0.0000      
BondAngle = 0.0000        Torsion   = 0.0000        Tether    = 0.0000      

MeanSquaredDisplacement
Species1
Atom 1: 452.112 
--------------------------------------------------------------------------------

Step 58000	Averages
System
CELL
   A          B          C          Alpha      Beta       Gamma   
    9.4850     9.4850     9.4850    90.0000    90.0000    90.0000
Lattice vectors
   9.4850000000e+00    0.0000000000e+00    0.0000000000e+00
   1.2756316186e-39    9.4850000000e+00    0.0000000000e+00
   1.2756316186e-39    1.2756316186e-39    9.4850000000e+00
Cell Volume: 853.32   
Cell Type: Cubic    PBCType: CUBIC

Temperature(K) = 240.4896    
Pressure(kbar) = 28.6559     
ConservedQty   = -347.3810   
ENERGY 
Total     = -385.9803     Kinetic   = 1532.6577     Potential = -1918.6380  
VDW       = -1918.6380    QQ        = 0.0000        Bond      = 0.0000      
BondAngle = 0.0000        Torsion   = 0.0000        Tether    = 0.0000      
VIRIAL 
Total     = -1412.0344    Constraint= 0.0000      
VDW       = -1412.0344    QQ        = 0.0000        Bond      = 0.0000      
BondAngle = 0.0000        Torsion   = 0.0000        Tether    = 0.0000      

--------------------------------------------------------------------------------

--------------------------------------------------------------------------------

Step 58100	 Instantaneous Values
System
Temperature(K) = 238.0642    
Pressure(kbar) = 28.1548     
ConservedQty   = -347.7785   
ENERGY 
Total     = -392.7789     Kinetic   = 1517.2006     Potential = -1909.9795  
VDW       = -1909.9795    QQ        = 0.0000        Bond      = 0.0000      
BondAngle = 0.0000        Torsion   = 0.0000        Tether    = 0.0000      
VIRIAL 
Total     = -1364.6587    Constraint= 0.0000      
VDW       = -1364.6587    QQ        = 0.0000        Bond      = 0.0000      
BondAngle = 0.0000        Torsion   = 0.0000        Tether    = 0.0000      

MeanSquaredDisplacement
Species1
Atom 1: 452.039 
--------------------------------------------------------------------------------

Step 58200	 Instantaneous Values
System
Temperature(K) = 247.6523    
Pressure(kbar) = 28.7100     
ConservedQty   = -347.4276   
ENERGY 
Total     = -348.4666     Kinetic   = 1578.3062     Potential = -1926.7728  
VDW       = -1926.7728    QQ        = 0.0000        Bond      = 0.0000      
BondAngle = 0.0000        Torsion   = 0.0000        Tether    = 0.0000      
VIRIAL 
Total     = -1329.1957    Constraint= 0.0000      
VDW       = -1329.1957    QQ        = 0.0000        Bond      = 0.0000      
BondAngle = 0.0000        Torsion   = 0.0000        Tether    = 0.0000      

MeanSquaredDisplacement
Species1
Atom 1: 452.732 
--------------------------------------------------------------------------------

Step 58300	 Instantaneous Values
System
Temperature(K) = 232.5293    
Pressure(kbar) = 29.3720     
ConservedQty   = -346.7393   
ENERGY 
Total     = -418.8374     Kinetic   = 1481.9262     Potential = -1900.7636  
VDW       = -1900.7636    QQ        = 0.0000        Bond      = 0.0000      
BondAngle = 0.0000        Torsion   = 0.0000        Tether    = 0.0000      
VIRIAL 
Total     = -1625.3865    Constraint= 0.0000      
VDW       = -1625.3865    QQ        = 0.0000        Bond      = 0.0000      
BondAngle = 0.0000        Torsion   = 0.0000        Tether    = 0.0000      

MeanSquaredDisplacement
Species1
Atom 1: 453.955 
--------------------------------------------------------------------------------

Step 58400	 Instantaneous Values
System
Temperature(K) = 245.2042    
Pressure(kbar) = 28.7390     
ConservedQty   = -347.0528   
ENERGY 
Total     = -348.7715     Kinetic   = 1562.7041     Potential = -1911.4756  
VDW       = -1911.4756    QQ        = 0.0000        Bond      = 0.0000      
BondAngle = 0.0000        Torsion   = 0.0000        Tether    = 0.0000      
VIRIAL 
Total     = -1364.9319    Constraint= 0.0000      
VDW       = -1364.9319    QQ        = 0.0000        Bond      = 0.0000      
BondAngle = 0.0000        Torsion   = 0.0000        Tether    = 0.0000      

MeanSquaredDisplacement
Species1
Atom 1: 455.433 
--------------------------------------------------------------------------------

Step 58500	 Instantaneous Values
System
Temperature(K) = 234.3426    
Pressure(kbar) = 26.4142     
ConservedQty   = -347.1471   
ENERGY 
Total     = -433.4968     Kinetic   = 1493.4827     Potential = -1926.9795  
VDW       = -1926.9795    QQ        = 0.0000        Bond      = 0.0000      
BondAngle = 0.0000        Torsion   = 0.0000        Tether    = 0.0000      
VIRIAL 
Total     = -1140.1286    Constraint= 0.0000      
VDW       = -1140.1286    QQ        = 0.0000        Bond      = 0.0000      
BondAngle = 0.0000        Torsion   = 0.0000        Tether    = 0.0000      

MeanSquaredDisplacement
Species1
Atom 1: 457.559 
--------------------------------------------------------------------------------

Step 58600	 Instantaneous Values
System
Temperature(K) = 241.3594    
Pressure(kbar) = 35.4317     
ConservedQty   = -347.9841   
ENERGY 
Total     = -322.3239     Kinetic   = 1538.2011     Potential = -1860.5250  
VDW       = -1860.5250    QQ        = 0.0000        Bond      = 0.0000      
BondAngle = 0.0000        Torsion   = 0.0000        Tether    = 0.0000      
VIRIAL 
Total     = -2459.6476    Constraint= 0.0000      
VDW       = -2459.6476    QQ        = 0.0000        Bond      = 0.0000      
BondAngle = 0.0000        Torsion   = 0.0000        Tether    = 0.0000      

MeanSquaredDisplacement
Species1
Atom 1: 459.026 
--------------------------------------------------------------------------------

Step 58700	 Instantaneous Values
System
Temperature(K) = 239.9306    
Pressure(kbar) = 23.1058     
ConservedQty   = -346.9180   
ENERGY 
Total     = -457.5973     Kinetic   = 1529.0953     Potential = -1986.6927  
VDW       = -1986.6927    QQ        = 0.0000        Bond      = 0.0000      
BondAngle = 0.0000        Torsion   = 0.0000        Tether    = 0.0000      
VIRIAL 
Total     = -551.9923     Constraint= 0.0000      
VDW       = -551.9923     QQ        = 0.0000        Bond      = 0.0000      
BondAngle = 0.0000        Torsion   = 0.0000        Tether    = 0.0000      

MeanSquaredDisplacement
Species1
Atom 1: 459.84 
--------------------------------------------------------------------------------

Step 58800	 Instantaneous Values
System
Temperature(K) = 249.9072    
Pressure(kbar) = 29.1802     
ConservedQty   = -346.0839   
ENERGY 
Total     = -324.5896     Kinetic   = 1592.6771     Potential = -1917.2667  
VDW       = -1917.2667    QQ        = 0.0000        Bond      = 0.0000      
BondAngle = 0.0000        Torsion   = 0.0000        Tether    = 0.0000      
VIRIAL 
Total     = -1373.9144    Constraint= 0.0000      
VDW       = -1373.9144    QQ        = 0.0000        Bond      = 0.0000      
BondAngle = 0.0000        Torsion   = 0.0000        Tether    = 0.0000      

MeanSquaredDisplacement
Species1
Atom 1: 462.007 
--------------------------------------------------------------------------------

Step 58900	 Instantaneous Values
System
Temperature(K) = 233.9178    
Pressure(kbar) = 26.5927     
ConservedQty   = -347.1383   
ENERGY 
Total     = -428.5266     Kinetic   = 1490.7750     Potential = -1919.3016  
VDW       = -1919.3016    QQ        = 0.0000        Bond      = 0.0000      
BondAngle = 0.0000        Torsion   = 0.0000        Tether    = 0.0000      
VIRIAL 
Total     = -1173.4444    Constraint= 0.0000      
VDW       = -1173.4444    QQ        = 0.0000        Bond      = 0.0000      
BondAngle = 0.0000        Torsion   = 0.0000        Tether    = 0.0000      

MeanSquaredDisplacement
Species1
Atom 1: 462.233 
--------------------------------------------------------------------------------

Step 59000	 Instantaneous Values
System
Temperature(K) = 245.6447    
Pressure(kbar) = 29.8348     
ConservedQty   = -346.4472   
ENERGY 
Total     = -338.0966     Kinetic   = 1565.5117     Potential = -1903.6083  
VDW       = -1903.6083    QQ        = 0.0000        Bond      = 0.0000      
BondAngle = 0.0000        Torsion   = 0.0000        Tether    = 0.0000      
VIRIAL 
Total     = -1530.5239    Constraint= 0.0000      
VDW       = -1530.5239    QQ        = 0.0000        Bond      = 0.0000      
BondAngle = 0.0000        Torsion   = 0.0000        Tether    = 0.0000      

MeanSquaredDisplacement
Species1
Atom 1: 462.9 
--------------------------------------------------------------------------------

Step 59000	Averages
System
CELL
   A          B          C          Alpha      Beta       Gamma   
    9.4850     9.4850     9.4850    90.0000    90.0000    90.0000
Lattice vectors
   9.4850000000e+00    0.0000000000e+00    0.0000000000e+00
   1.2495983202e-39    9.4850000000e+00    0.0000000000e+00
   1.2495983202e-39    1.2495983202e-39    9.4850000000e+00
Cell Volume: 853.32   
Cell Type: Cubic    PBCType: CUBIC

Temperature(K) = 240.4971    
Pressure(kbar) = 28.6538     
ConservedQty   = -347.3746   
ENERGY 
Total     = -385.8857     Kinetic   = 1532.7053     Potential = -1918.5910  
VDW       = -1918.5910    QQ        = 0.0000        Bond      = 0.0000      
BondAngle = 0.0000        Torsion   = 0.0000        Tether    = 0.0000      
VIRIAL 
Total     = -1411.6129    Constraint= 0.0000      
VDW       = -1411.6129    QQ        = 0.0000        Bond      = 0.0000      
BondAngle = 0.0000        Torsion   = 0.0000        Tether    = 0.0000      

--------------------------------------------------------------------------------

--------------------------------------------------------------------------------

Step 59100	 Instantaneous Values
System
Temperature(K) = 231.6451    
Pressure(kbar) = 27.5137     
ConservedQty   = -347.6533   
ENERGY 
Total     = -446.0058     Kinetic   = 1476.2914     Potential = -1922.2971  
VDW       = -1922.2971    QQ        = 0.0000        Bond      = 0.0000      
BondAngle = 0.0000        Torsion   = 0.0000        Tether    = 0.0000      
VIRIAL 
Total     = -1346.3048    Constraint= 0.0000      
VDW       = -1346.3048    QQ        = 0.0000        Bond      = 0.0000      
BondAngle = 0.0000        Torsion   = 0.0000        Tether    = 0.0000      

MeanSquaredDisplacement
Species1
Atom 1: 463.003 
--------------------------------------------------------------------------------

Step 59200	 Instantaneous Values
System
Temperature(K) = 250.3940    
Pressure(kbar) = 29.9943     
ConservedQty   = -347.2747   
ENERGY 
Total     = -302.4016     Kinetic   = 1595.7791     Potential = -1898.1807  
VDW       = -1898.1807    QQ        = 0.0000        Bond      = 0.0000      
BondAngle = 0.0000        Torsion   = 0.0000        Tether    = 0.0000      
VIRIAL 
Total     = -1494.9185    Constraint= 0.0000      
VDW       = -1494.9185    QQ        = 0.0000        Bond      = 0.0000      
BondAngle = 0.0000        Torsion   = 0.0000        Tether    = 0.0000      

MeanSquaredDisplacement
Species1
Atom 1: 464.549 
--------------------------------------------------------------------------------

Step 59300	 Instantaneous Values
System
Temperature(K) = 235.8642    
Pressure(kbar) = 30.1375     
ConservedQty   = -347.6756   
ENERGY 
Total     = -412.8339     Kinetic   = 1503.1800     Potential = -1916.0139  
VDW       = -1916.0139    QQ        = 0.0000        Bond      = 0.0000      
BondAngle = 0.0000        Torsion   = 0.0000        Tether    = 0.0000      
VIRIAL 
Total     = -1702.4949    Constraint= 0.0000      
VDW       = -1702.4949    QQ        = 0.0000        Bond      = 0.0000      
BondAngle = 0.0000        Torsion   = 0.0000        Tether    = 0.0000      

MeanSquaredDisplacement
Species1
Atom 1: 463.604 
--------------------------------------------------------------------------------

Step 59400	 Instantaneous Values
System
Temperature(K) = 239.3529    
Pressure(kbar) = 33.3439     
ConservedQty   = -346.6245   
ENERGY 
Total     = -338.2936     Kinetic   = 1525.4137     Potential = -1863.7072  
VDW       = -1863.7072    QQ        = 0.0000        Bond      = 0.0000      
BondAngle = 0.0000        Torsion   = 0.0000        Tether    = 0.0000      
VIRIAL 
Total     = -2159.0075    Constraint= 0.0000      
VDW       = -2159.0075    QQ        = 0.0000        Bond      = 0.0000      
BondAngle = 0.0000        Torsion   = 0.0000        Tether    = 0.0000      

MeanSquaredDisplacement
Species1
Atom 1: 463.362 
--------------------------------------------------------------------------------

Step 59500	 Instantaneous Values
System
Temperature(K) = 235.2181    
Pressure(kbar) = 27.9268     
ConservedQty   = -347.5011   
ENERGY 
Total     = -419.2918     Kinetic   = 1499.0622     Potential = -1918.3540  
VDW       = -1918.3540    QQ        = 0.0000        Bond      = 0.0000      
BondAngle = 0.0000        Torsion   = 0.0000        Tether    = 0.0000      
VIRIAL 
Total     = -1365.3099    Constraint= 0.0000      
VDW       = -1365.3099    QQ        = 0.0000        Bond      = 0.0000      
BondAngle = 0.0000        Torsion   = 0.0000        Tether    = 0.0000      

MeanSquaredDisplacement
Species1
Atom 1: 464.788 
--------------------------------------------------------------------------------

Step 59600	 Instantaneous Values
System
Temperature(K) = 251.9600    
Pressure(kbar) = 28.1209     
ConservedQty   = -347.2105   
ENERGY 
Total     = -322.1980     Kinetic   = 1605.7592     Potential = -1927.9572  
VDW       = -1927.9572    QQ        = 0.0000        Bond      = 0.0000      
BondAngle = 0.0000        Torsion   = 0.0000        Tether    = 0.0000      
VIRIAL 
Total     = -1182.2462    Constraint= 0.0000      
VDW       = -1182.2462    QQ        = 0.0000        Bond      = 0.0000      
BondAngle = 0.0000        Torsion   = 0.0000        Tether    = 0.0000      

MeanSquaredDisplacement
Species1
Atom 1: 465.454 
--------------------------------------------------------------------------------

Step 59700	 Instantaneous Values
System
Temperature(K) = 235.5217    
Pressure(kbar) = 23.7382     
ConservedQty   = -347.1970   
ENERGY 
Total     = -459.0162     Kinetic   = 1500.9968     Potential = -1960.0130  
VDW       = -1960.0130    QQ        = 0.0000        Bond      = 0.0000      
BondAngle = 0.0000        Torsion   = 0.0000        Tether    = 0.0000      
VIRIAL 
Total     = -706.9919     Constraint= 0.0000      
VDW       = -706.9919     QQ        = 0.0000        Bond      = 0.0000      
BondAngle = 0.0000        Torsion   = 0.0000        Tether    = 0.0000      

MeanSquaredDisplacement
Species1
Atom 1: 466.94 
--------------------------------------------------------------------------------

Step 59800	 Instantaneous Values
System
Temperature(K) = 244.3768    
Pressure(kbar) = 34.8000     
ConservedQty   = -348.6087   
ENERGY 
Total     = -326.7559     Kinetic   = 1557.4309     Potential = -1884.1868  
VDW       = -1884.1868    QQ        = 0.0000        Bond      = 0.0000      
BondAngle = 0.0000        Torsion   = 0.0000        Tether    = 0.0000      
VIRIAL 
Total     = -2322.4830    Constraint= 0.0000      
VDW       = -2322.4830    QQ        = 0.0000        Bond      = 0.0000      
BondAngle = 0.0000        Torsion   = 0.0000        Tether    = 0.0000      

MeanSquaredDisplacement
Species1
Atom 1: 467.252 
--------------------------------------------------------------------------------

Step 59900	 Instantaneous Values
System
Temperature(K) = 240.9384    
Pressure(kbar) = 22.3167     
ConservedQty   = -346.8850   
ENERGY 
Total     = -429.5354     Kinetic   = 1535.5177     Potential = -1965.0530  
VDW       = -1965.0530    QQ        = 0.0000        Bond      = 0.0000      
BondAngle = 0.0000        Torsion   = 0.0000        Tether    = 0.0000      
VIRIAL 
Total     = -415.8436     Constraint= 0.0000      
VDW       = -415.8436     QQ        = 0.0000        Bond      = 0.0000      
BondAngle = 0.0000        Torsion   = 0.0000        Tether    = 0.0000      

MeanSquaredDisplacement
Species1
Atom 1: 467.577 
--------------------------------------------------------------------------------

Step 60000	 Instantaneous Values
System
Temperature(K) = 240.0729    
Pressure(kbar) = 34.4163     
ConservedQty   = -347.1274   
ENERGY 
Total     = -327.9733     Kinetic   = 1530.0020     Potential = -1857.9753  
VDW       = -1857.9753    QQ        = 0.0000        Bond      = 0.0000      
BondAngle = 0.0000        Torsion   = 0.0000        Tether    = 0.0000      
VIRIAL 
Total     = -2317.3818    Constraint= 0.0000      
VDW       = -2317.3818    QQ        = 0.0000        Bond      = 0.0000      
BondAngle = 0.0000        Torsion   = 0.0000        Tether    = 0.0000      

MeanSquaredDisplacement
Species1
Atom 1: 468.458 
--------------------------------------------------------------------------------

Step 60000	Averages
System
CELL
   A          B          C          Alpha      Beta       Gamma   
    9.4850     9.4850     9.4850    90.0000    90.0000    90.0000
Lattice vectors
   9.4850000000e+00    0.0000000000e+00    0.0000000000e+00
   1.2246063538e-39    9.4850000000e+00    0.0000000000e+00
   1.2246063538e-39    1.2246063538e-39    9.4850000000e+00
Cell Volume: 853.32   
Cell Type: Cubic    PBCType: CUBIC

Temperature(K) = 240.4978    
Pressure(kbar) = 28.6653     
ConservedQty   = -347.3747   
ENERGY 
Total     = -385.7366     Kinetic   = 1532.7100     Potential = -1918.4467  
VDW       = -1918.4467    QQ        = 0.0000        Bond      = 0.0000      
BondAngle = 0.0000        Torsion   = 0.0000        Tether    = 0.0000      
VIRIAL 
Total     = -1413.4066    Constraint= 0.0000      
VDW       = -1413.4066    QQ        = 0.0000        Bond      = 0.0000      
BondAngle = 0.0000        Torsion   = 0.0000        Tether    = 0.0000      

--------------------------------------------------------------------------------

--------------------------------------------------------------------------------

Step 60000	Averages
System
CELL
   A          B          C          Alpha      Beta       Gamma   
    9.4850     9.4850     9.4850    90.0000    90.0000    90.0000
Lattice vectors
   9.4850000000e+00    0.0000000000e+00    0.0000000000e+00
   1.2246063538e-39    9.4850000000e+00    0.0000000000e+00
   1.2246063538e-39    1.2246063538e-39    9.4850000000e+00
Cell Volume: 853.32   
Cell Type: Cubic    PBCType: CUBIC

Temperature(K) = 240.4978    
Pressure(kbar) = 28.6653     
ConservedQty   = -347.3747   
ENERGY 
Total     = -385.7366     Kinetic   = 1532.7100     Potential = -1918.4467  
VDW       = -1918.4467    QQ        = 0.0000        Bond      = 0.0000      
BondAngle = 0.0000        Torsion   = 0.0000        Tether    = 0.0000      
VIRIAL 
Total     = -1413.4066    Constraint= 0.0000      
VDW       = -1413.4066    QQ        = 0.0000        Bond      = 0.0000      
BondAngle = 0.0000        Torsion   = 0.0000        Tether    = 0.0000      

--------------------------------------------------------------------------------

