LJ
CONTROL PARAMETERS
 Mode:                Molecular Dynamics
 Number Of Steps:     500000
 Equilibration Steps: 10000
 Timestep:            0.0005 ps
 ConstraintTolerance: 1.000e-08
 Ensemble:            NVT    tau(T): 0.02000 Temperature: 240.5 K 
 Temperature scaling: Every 10 steps during equilibration period
 Forcefield:          VDW
 Cutoff : 2.500 Angstrom DCutoff: 0.3000 Angstrom
 LongRangeCorrection: Enabled

 PBC:   CUBIC, Shift particles

 FGDistribution:      Enabled, Active Species: 0    DeltaX = 1.200
 Statistics:          Enabled, Accumulation Interval: 100
 PeriodicOutput Interval:       100
 AveragesOutputInterval:        1000
 Configuration Save Start Step: 1
 Configuration Save Interval:   100000
 Configuration Save Data Level: Coordinates only
 Configuration Input DataLevel: Coordinates only
 IsPDBOutput:   true


--------------------------------------------------------------------------------

Energy units:kj/mol

MOLECULAR ENSEMBLE  
LJ SYSTEM
TotalMass        = 512.000000
CentreOfMass     = -0.002391 0.003500 -0.012219
DegreesOfFreedom = 1536

LJ
number of molecules 512
Atoms 1
 nr atom type res  resnr ffid mass   charge freeze
  1   LJ   LJ  MOL    0   0   1.00   0.0000 false

charge: 0
mass: 1
degrees of freedom: 3

InteractionWeightVDW
0 

InteractionWeightQQ
0 

Atom Connectivity
1 

MC displacement parameters
MaximumTranslation: 0.01 Ang   MaximumRotation: 5 deg

TotalMass        = 512
CentreOfMass     = -0.00239063 0.0035 -0.0122188
DegreesOfFreedom = 1536

NumberOfMolecules  512



--------------------------------------------------------------------------------

Forcefield NON_BONDED PARAMETERS

Cutoff:2.5  DCutoff:0.3
TabulationSize = 2750
vdw 1
  LJ   LJ lj          1        1

--------------------------------------------------------------------------------

CELL
   A          B          C          Alpha      Beta       Gamma   
    8.0000     8.0000     8.0000    90.0000    90.0000    90.0000
Lattice vectors
   8.0000000000e+00    0.0000000000e+00    0.0000000000e+00
   0.0000000000e+00    8.0000000000e+00    0.0000000000e+00
   0.0000000000e+00    0.0000000000e+00    8.0000000000e+00
Cell Volume: 512   
Cell Type: Cubic    PBCType: CUBIC

--------------------------------------------------------------------------------

THERMOSTAT
ExternalTemperature: 240.5 K
Temperature:         0 K
DegreesOfFreedom:    1533
Tau:  0.02 ps
Chi:      0
Chi_bhDT: 0
Chi_fhDT: 0
ConservedIntegral:  0

--------------------------------------------------------------------------------

BAROSTAT
ExtPressure:  599 kbar
Tau(P):       1 ps
Pressure:     0 kbar
Virial:       0 kJ/mol
StressTensor: false


--------------------------------------------------------------------------------

Step 100	 Instantaneous Values
System
Temperature(K) = 240.5000    
Pressure(kbar) = 232.6264    
ConservedQty   = -1114.0683  
ENERGY 
Total     = -1131.7938    Kinetic   = 1532.7240     Potential = -2664.5178  
VDW       = -2664.5178    QQ        = 0.0000        Bond      = 0.0000      
BondAngle = 0.0000        Torsion   = 0.0000        Tether    = 0.0000      
VIRIAL 
Total     = -18742.9880   Constraint= 0.0000      
VDW       = -18742.9880   QQ        = 0.0000        Bond      = 0.0000      
BondAngle = 0.0000        Torsion   = 0.0000        Tether    = 0.0000      

--------------------------------------------------------------------------------

Step 200	 Instantaneous Values
System
Temperature(K) = 240.5000    
Pressure(kbar) = 234.8059    
ConservedQty   = -1113.7351  
ENERGY 
Total     = -1133.9985    Kinetic   = 1532.7240     Potential = -2666.7225  
VDW       = -2666.7225    QQ        = 0.0000        Bond      = 0.0000      
BondAngle = 0.0000        Torsion   = 0.0000        Tether    = 0.0000      
VIRIAL 
Total     = -18947.3175   Constraint= 0.0000      
VDW       = -18947.3175   QQ        = 0.0000        Bond      = 0.0000      
BondAngle = 0.0000        Torsion   = 0.0000        Tether    = 0.0000      

--------------------------------------------------------------------------------

Step 300	 Instantaneous Values
System
Temperature(K) = 240.5000    
Pressure(kbar) = 233.6732    
ConservedQty   = -1111.9881  
ENERGY 
Total     = -1133.1091    Kinetic   = 1532.7240     Potential = -2665.8331  
VDW       = -2665.8331    QQ        = 0.0000        Bond      = 0.0000      
BondAngle = 0.0000        Torsion   = 0.0000        Tether    = 0.0000      
VIRIAL 
Total     = -18841.1258   Constraint= 0.0000      
VDW       = -18841.1258   QQ        = 0.0000        Bond      = 0.0000      
BondAngle = 0.0000        Torsion   = 0.0000        Tether    = 0.0000      

--------------------------------------------------------------------------------

Step 400	 Instantaneous Values
System
Temperature(K) = 240.5000    
Pressure(kbar) = 242.6542    
ConservedQty   = -1068.3992  
ENERGY 
Total     = -1085.5945    Kinetic   = 1532.7240     Potential = -2618.3185  
VDW       = -2618.3185    QQ        = 0.0000        Bond      = 0.0000      
BondAngle = 0.0000        Torsion   = 0.0000        Tether    = 0.0000      
VIRIAL 
Total     = -19683.0864   Constraint= 0.0000      
VDW       = -19683.0864   QQ        = 0.0000        Bond      = 0.0000      
BondAngle = 0.0000        Torsion   = 0.0000        Tether    = 0.0000      

--------------------------------------------------------------------------------

Step 500	 Instantaneous Values
System
Temperature(K) = 240.5000    
Pressure(kbar) = 251.0840    
ConservedQty   = -1015.5122  
ENERGY 
Total     = -1029.8280    Kinetic   = 1532.7240     Potential = -2562.5520  
VDW       = -2562.5520    QQ        = 0.0000        Bond      = 0.0000      
BondAngle = 0.0000        Torsion   = 0.0000        Tether    = 0.0000      
VIRIAL 
Total     = -20473.3721   Constraint= 0.0000      
VDW       = -20473.3721   QQ        = 0.0000        Bond      = 0.0000      
BondAngle = 0.0000        Torsion   = 0.0000        Tether    = 0.0000      

--------------------------------------------------------------------------------

Step 600	 Instantaneous Values
System
Temperature(K) = 240.5000    
Pressure(kbar) = 264.9849    
ConservedQty   = -933.0870   
ENERGY 
Total     = -947.6293     Kinetic   = 1532.7240     Potential = -2480.3533  
VDW       = -2480.3533    QQ        = 0.0000        Bond      = 0.0000      
BondAngle = 0.0000        Torsion   = 0.0000        Tether    = 0.0000      
VIRIAL 
Total     = -21776.5646   Constraint= 0.0000      
VDW       = -21776.5646   QQ        = 0.0000        Bond      = 0.0000      
BondAngle = 0.0000        Torsion   = 0.0000        Tether    = 0.0000      

--------------------------------------------------------------------------------

Step 700	 Instantaneous Values
System
Temperature(K) = 240.5000    
Pressure(kbar) = 263.1171    
ConservedQty   = -939.6026   
ENERGY 
Total     = -953.4430     Kinetic   = 1532.7240     Potential = -2486.1670  
VDW       = -2486.1670    QQ        = 0.0000        Bond      = 0.0000      
BondAngle = 0.0000        Torsion   = 0.0000        Tether    = 0.0000      
VIRIAL 
Total     = -21601.4596   Constraint= 0.0000      
VDW       = -21601.4596   QQ        = 0.0000        Bond      = 0.0000      
BondAngle = 0.0000        Torsion   = 0.0000        Tether    = 0.0000      

--------------------------------------------------------------------------------

Step 800	 Instantaneous Values
System
Temperature(K) = 240.5000    
Pressure(kbar) = 254.6713    
ConservedQty   = -1011.8442  
ENERGY 
Total     = -1023.7131    Kinetic   = 1532.7240     Potential = -2556.4371  
VDW       = -2556.4371    QQ        = 0.0000        Bond      = 0.0000      
BondAngle = 0.0000        Torsion   = 0.0000        Tether    = 0.0000      
VIRIAL 
Total     = -20809.6690   Constraint= 0.0000      
VDW       = -20809.6690   QQ        = 0.0000        Bond      = 0.0000      
BondAngle = 0.0000        Torsion   = 0.0000        Tether    = 0.0000      

--------------------------------------------------------------------------------

Step 900	 Instantaneous Values
System
Temperature(K) = 240.5000    
Pressure(kbar) = 255.7178    
ConservedQty   = -986.6149   
ENERGY 
Total     = -996.0271     Kinetic   = 1532.7240     Potential = -2528.7511  
VDW       = -2528.7511    QQ        = 0.0000        Bond      = 0.0000      
BondAngle = 0.0000        Torsion   = 0.0000        Tether    = 0.0000      
VIRIAL 
Total     = -20907.7785   Constraint= 0.0000      
VDW       = -20907.7785   QQ        = 0.0000        Bond      = 0.0000      
BondAngle = 0.0000        Torsion   = 0.0000        Tether    = 0.0000      

--------------------------------------------------------------------------------

Step 1000	 Instantaneous Values
System
Temperature(K) = 240.5000    
Pressure(kbar) = 235.3233    
ConservedQty   = -1110.9317  
ENERGY 
Total     = -1125.9584    Kinetic   = 1532.7240     Potential = -2658.6824  
VDW       = -2658.6824    QQ        = 0.0000        Bond      = 0.0000      
BondAngle = 0.0000        Torsion   = 0.0000        Tether    = 0.0000      
VIRIAL 
Total     = -18995.8241   Constraint= 0.0000      
VDW       = -18995.8241   QQ        = 0.0000        Bond      = 0.0000      
BondAngle = 0.0000        Torsion   = 0.0000        Tether    = 0.0000      

--------------------------------------------------------------------------------

Step 1100	 Instantaneous Values
System
Temperature(K) = 240.5000    
Pressure(kbar) = 248.0708    
ConservedQty   = -1035.2545  
ENERGY 
Total     = -1045.2917    Kinetic   = 1532.7240     Potential = -2578.0157  
VDW       = -2578.0157    QQ        = 0.0000        Bond      = 0.0000      
BondAngle = 0.0000        Torsion   = 0.0000        Tether    = 0.0000      
VIRIAL 
Total     = -20190.8868   Constraint= 0.0000      
VDW       = -20190.8868   QQ        = 0.0000        Bond      = 0.0000      
BondAngle = 0.0000        Torsion   = 0.0000        Tether    = 0.0000      

--------------------------------------------------------------------------------

Step 1200	 Instantaneous Values
System
Temperature(K) = 240.5000    
Pressure(kbar) = 237.3339    
ConservedQty   = -1097.3737  
ENERGY 
Total     = -1114.6639    Kinetic   = 1532.7240     Potential = -2647.3879  
VDW       = -2647.3879    QQ        = 0.0000        Bond      = 0.0000      
BondAngle = 0.0000        Torsion   = 0.0000        Tether    = 0.0000      
VIRIAL 
Total     = -19184.3162   Constraint= 0.0000      
VDW       = -19184.3162   QQ        = 0.0000        Bond      = 0.0000      
BondAngle = 0.0000        Torsion   = 0.0000        Tether    = 0.0000      

--------------------------------------------------------------------------------

Step 1300	 Instantaneous Values
System
Temperature(K) = 240.5000    
Pressure(kbar) = 241.9513    
ConservedQty   = -1075.5164  
ENERGY 
Total     = -1087.9976    Kinetic   = 1532.7240     Potential = -2620.7216  
VDW       = -2620.7216    QQ        = 0.0000        Bond      = 0.0000      
BondAngle = 0.0000        Torsion   = 0.0000        Tether    = 0.0000      
VIRIAL 
Total     = -19617.1848   Constraint= 0.0000      
VDW       = -19617.1848   QQ        = 0.0000        Bond      = 0.0000      
BondAngle = 0.0000        Torsion   = 0.0000        Tether    = 0.0000      

--------------------------------------------------------------------------------

Step 1400	 Instantaneous Values
System
Temperature(K) = 240.5000    
Pressure(kbar) = 252.7025    
ConservedQty   = -1011.9956  
ENERGY 
Total     = -1020.3499    Kinetic   = 1532.7240     Potential = -2553.0739  
VDW       = -2553.0739    QQ        = 0.0000        Bond      = 0.0000      
BondAngle = 0.0000        Torsion   = 0.0000        Tether    = 0.0000      
VIRIAL 
Total     = -20625.1016   Constraint= 0.0000      
VDW       = -20625.1016   QQ        = 0.0000        Bond      = 0.0000      
BondAngle = 0.0000        Torsion   = 0.0000        Tether    = 0.0000      

--------------------------------------------------------------------------------

Step 1500	 Instantaneous Values
System
Temperature(K) = 240.5000    
Pressure(kbar) = 251.5579    
ConservedQty   = -1007.7776  
ENERGY 
Total     = -1017.0978    Kinetic   = 1532.7240     Potential = -2549.8219  
VDW       = -2549.8219    QQ        = 0.0000        Bond      = 0.0000      
BondAngle = 0.0000        Torsion   = 0.0000        Tether    = 0.0000      
VIRIAL 
Total     = -20517.7938   Constraint= 0.0000      
VDW       = -20517.7938   QQ        = 0.0000        Bond      = 0.0000      
BondAngle = 0.0000        Torsion   = 0.0000        Tether    = 0.0000      

--------------------------------------------------------------------------------

Step 1600	 Instantaneous Values
System
Temperature(K) = 240.5000    
Pressure(kbar) = 250.4798    
ConservedQty   = -1024.3995  
ENERGY 
Total     = -1039.9009    Kinetic   = 1532.7240     Potential = -2572.6249  
VDW       = -2572.6249    QQ        = 0.0000        Bond      = 0.0000      
BondAngle = 0.0000        Torsion   = 0.0000        Tether    = 0.0000      
VIRIAL 
Total     = -20416.7232   Constraint= 0.0000      
VDW       = -20416.7232   QQ        = 0.0000        Bond      = 0.0000      
BondAngle = 0.0000        Torsion   = 0.0000        Tether    = 0.0000      

--------------------------------------------------------------------------------

Step 1700	 Instantaneous Values
System
Temperature(K) = 240.5000    
Pressure(kbar) = 251.1577    
ConservedQty   = -1008.9732  
ENERGY 
Total     = -1024.8133    Kinetic   = 1532.7240     Potential = -2557.5373  
VDW       = -2557.5373    QQ        = 0.0000        Bond      = 0.0000      
BondAngle = 0.0000        Torsion   = 0.0000        Tether    = 0.0000      
VIRIAL 
Total     = -20480.2809   Constraint= 0.0000      
VDW       = -20480.2809   QQ        = 0.0000        Bond      = 0.0000      
BondAngle = 0.0000        Torsion   = 0.0000        Tether    = 0.0000      

--------------------------------------------------------------------------------

Step 1800	 Instantaneous Values
System
Temperature(K) = 240.5000    
Pressure(kbar) = 238.6341    
ConservedQty   = -1096.2081  
ENERGY 
Total     = -1110.3174    Kinetic   = 1532.7240     Potential = -2643.0415  
VDW       = -2643.0415    QQ        = 0.0000        Bond      = 0.0000      
BondAngle = 0.0000        Torsion   = 0.0000        Tether    = 0.0000      
VIRIAL 
Total     = -19306.2083   Constraint= 0.0000      
VDW       = -19306.2083   QQ        = 0.0000        Bond      = 0.0000      
BondAngle = 0.0000        Torsion   = 0.0000        Tether    = 0.0000      

--------------------------------------------------------------------------------

Step 1900	 Instantaneous Values
System
Temperature(K) = 240.5000    
Pressure(kbar) = 251.3901    
ConservedQty   = -1022.6397  
ENERGY 
Total     = -1033.5879    Kinetic   = 1532.7240     Potential = -2566.3119  
VDW       = -2566.3119    QQ        = 0.0000        Bond      = 0.0000      
BondAngle = 0.0000        Torsion   = 0.0000        Tether    = 0.0000      
VIRIAL 
Total     = -20502.0660   Constraint= 0.0000      
VDW       = -20502.0660   QQ        = 0.0000        Bond      = 0.0000      
BondAngle = 0.0000        Torsion   = 0.0000        Tether    = 0.0000      

--------------------------------------------------------------------------------

Step 2000	 Instantaneous Values
System
Temperature(K) = 240.5000    
Pressure(kbar) = 241.3406    
ConservedQty   = -1068.0343  
ENERGY 
Total     = -1084.9023    Kinetic   = 1532.7240     Potential = -2617.6263  
VDW       = -2617.6263    QQ        = 0.0000        Bond      = 0.0000      
BondAngle = 0.0000        Torsion   = 0.0000        Tether    = 0.0000      
VIRIAL 
Total     = -19559.9344   Constraint= 0.0000      
VDW       = -19559.9344   QQ        = 0.0000        Bond      = 0.0000      
BondAngle = 0.0000        Torsion   = 0.0000        Tether    = 0.0000      

--------------------------------------------------------------------------------

Step 2100	 Instantaneous Values
System
Temperature(K) = 240.5000    
Pressure(kbar) = 239.7793    
ConservedQty   = -1082.2218  
ENERGY 
Total     = -1098.2792    Kinetic   = 1532.7240     Potential = -2631.0032  
VDW       = -2631.0032    QQ        = 0.0000        Bond      = 0.0000      
BondAngle = 0.0000        Torsion   = 0.0000        Tether    = 0.0000      
VIRIAL 
Total     = -19413.5642   Constraint= 0.0000      
VDW       = -19413.5642   QQ        = 0.0000        Bond      = 0.0000      
BondAngle = 0.0000        Torsion   = 0.0000        Tether    = 0.0000      

--------------------------------------------------------------------------------

Step 2200	 Instantaneous Values
System
Temperature(K) = 240.5000    
Pressure(kbar) = 249.1493    
ConservedQty   = -1021.8714  
ENERGY 
Total     = -1037.4157    Kinetic   = 1532.7240     Potential = -2570.1397  
VDW       = -2570.1397    QQ        = 0.0000        Bond      = 0.0000      
BondAngle = 0.0000        Torsion   = 0.0000        Tether    = 0.0000      
VIRIAL 
Total     = -20291.9936   Constraint= 0.0000      
VDW       = -20291.9936   QQ        = 0.0000        Bond      = 0.0000      
BondAngle = 0.0000        Torsion   = 0.0000        Tether    = 0.0000      

--------------------------------------------------------------------------------

Step 2300	 Instantaneous Values
System
Temperature(K) = 240.5000    
Pressure(kbar) = 247.4766    
ConservedQty   = -1035.9868  
ENERGY 
Total     = -1050.1618    Kinetic   = 1532.7240     Potential = -2582.8858  
VDW       = -2582.8858    QQ        = 0.0000        Bond      = 0.0000      
BondAngle = 0.0000        Torsion   = 0.0000        Tether    = 0.0000      
VIRIAL 
Total     = -20135.1762   Constraint= 0.0000      
VDW       = -20135.1762   QQ        = 0.0000        Bond      = 0.0000      
BondAngle = 0.0000        Torsion   = 0.0000        Tether    = 0.0000      

--------------------------------------------------------------------------------

Step 2400	 Instantaneous Values
System
Temperature(K) = 240.5000    
Pressure(kbar) = 248.6420    
ConservedQty   = -1030.2177  
ENERGY 
Total     = -1047.1940    Kinetic   = 1532.7240     Potential = -2579.9180  
VDW       = -2579.9180    QQ        = 0.0000        Bond      = 0.0000      
BondAngle = 0.0000        Torsion   = 0.0000        Tether    = 0.0000      
VIRIAL 
Total     = -20244.4304   Constraint= 0.0000      
VDW       = -20244.4304   QQ        = 0.0000        Bond      = 0.0000      
BondAngle = 0.0000        Torsion   = 0.0000        Tether    = 0.0000      

--------------------------------------------------------------------------------

Step 2500	 Instantaneous Values
System
Temperature(K) = 240.5000    
Pressure(kbar) = 261.8769    
ConservedQty   = -956.2587   
ENERGY 
Total     = -967.1689     Kinetic   = 1532.7240     Potential = -2499.8929  
VDW       = -2499.8929    QQ        = 0.0000        Bond      = 0.0000      
BondAngle = 0.0000        Torsion   = 0.0000        Tether    = 0.0000      
VIRIAL 
Total     = -21485.1884   Constraint= 0.0000      
VDW       = -21485.1884   QQ        = 0.0000        Bond      = 0.0000      
BondAngle = 0.0000        Torsion   = 0.0000        Tether    = 0.0000      

--------------------------------------------------------------------------------

Step 2600	 Instantaneous Values
System
Temperature(K) = 240.5000    
Pressure(kbar) = 246.0734    
ConservedQty   = -1043.4589  
ENERGY 
Total     = -1055.5144    Kinetic   = 1532.7240     Potential = -2588.2384  
VDW       = -2588.2384    QQ        = 0.0000        Bond      = 0.0000      
BondAngle = 0.0000        Torsion   = 0.0000        Tether    = 0.0000      
VIRIAL 
Total     = -20003.6330   Constraint= 0.0000      
VDW       = -20003.6330   QQ        = 0.0000        Bond      = 0.0000      
BondAngle = 0.0000        Torsion   = 0.0000        Tether    = 0.0000      

--------------------------------------------------------------------------------

Step 2700	 Instantaneous Values
System
Temperature(K) = 240.5000    
Pressure(kbar) = 243.8496    
ConservedQty   = -1060.0822  
ENERGY 
Total     = -1076.8075    Kinetic   = 1532.7240     Potential = -2609.5315  
VDW       = -2609.5315    QQ        = 0.0000        Bond      = 0.0000      
BondAngle = 0.0000        Torsion   = 0.0000        Tether    = 0.0000      
VIRIAL 
Total     = -19795.1540   Constraint= 0.0000      
VDW       = -19795.1540   QQ        = 0.0000        Bond      = 0.0000      
BondAngle = 0.0000        Torsion   = 0.0000        Tether    = 0.0000      

--------------------------------------------------------------------------------

Step 2800	 Instantaneous Values
System
Temperature(K) = 240.5000    
Pressure(kbar) = 251.5254    
ConservedQty   = -1013.0043  
ENERGY 
Total     = -1031.1696    Kinetic   = 1532.7240     Potential = -2563.8936  
VDW       = -2563.8936    QQ        = 0.0000        Bond      = 0.0000      
BondAngle = 0.0000        Torsion   = 0.0000        Tether    = 0.0000      
VIRIAL 
Total     = -20514.7527   Constraint= 0.0000      
VDW       = -20514.7527   QQ        = 0.0000        Bond      = 0.0000      
BondAngle = 0.0000        Torsion   = 0.0000        Tether    = 0.0000      

--------------------------------------------------------------------------------

Step 2900	 Instantaneous Values
System
Temperature(K) = 240.5000    
Pressure(kbar) = 272.4950    
ConservedQty   = -889.5394   
ENERGY 
Total     = -905.5711     Kinetic   = 1532.7240     Potential = -2438.2951  
VDW       = -2438.2951    QQ        = 0.0000        Bond      = 0.0000      
BondAngle = 0.0000        Torsion   = 0.0000        Tether    = 0.0000      
VIRIAL 
Total     = -22480.6188   Constraint= 0.0000      
VDW       = -22480.6188   QQ        = 0.0000        Bond      = 0.0000      
BondAngle = 0.0000        Torsion   = 0.0000        Tether    = 0.0000      

--------------------------------------------------------------------------------

Step 3000	 Instantaneous Values
System
Temperature(K) = 240.5000    
Pressure(kbar) = 249.3974    
ConservedQty   = -1034.1494  
ENERGY 
Total     = -1053.9696    Kinetic   = 1532.7240     Potential = -2586.6936  
VDW       = -2586.6936    QQ        = 0.0000        Bond      = 0.0000      
BondAngle = 0.0000        Torsion   = 0.0000        Tether    = 0.0000      
VIRIAL 
Total     = -20315.2480   Constraint= 0.0000      
VDW       = -20315.2480   QQ        = 0.0000        Bond      = 0.0000      
BondAngle = 0.0000        Torsion   = 0.0000        Tether    = 0.0000      

--------------------------------------------------------------------------------

Step 3100	 Instantaneous Values
System
Temperature(K) = 240.5000    
Pressure(kbar) = 241.1955    
ConservedQty   = -1080.2440  
ENERGY 
Total     = -1099.9448    Kinetic   = 1532.7240     Potential = -2632.6688  
VDW       = -2632.6688    QQ        = 0.0000        Bond      = 0.0000      
BondAngle = 0.0000        Torsion   = 0.0000        Tether    = 0.0000      
VIRIAL 
Total     = -19546.3346   Constraint= 0.0000      
VDW       = -19546.3346   QQ        = 0.0000        Bond      = 0.0000      
BondAngle = 0.0000        Torsion   = 0.0000        Tether    = 0.0000      

--------------------------------------------------------------------------------

Step 3200	 Instantaneous Values
System
Temperature(K) = 240.5000    
Pressure(kbar) = 255.6674    
ConservedQty   = -996.5987   
ENERGY 
Total     = -1012.4865    Kinetic   = 1532.7240     Potential = -2545.2105  
VDW       = -2545.2105    QQ        = 0.0000        Bond      = 0.0000      
BondAngle = 0.0000        Torsion   = 0.0000        Tether    = 0.0000      
VIRIAL 
Total     = -20903.0538   Constraint= 0.0000      
VDW       = -20903.0538   QQ        = 0.0000        Bond      = 0.0000      
BondAngle = 0.0000        Torsion   = 0.0000        Tether    = 0.0000      

--------------------------------------------------------------------------------

Step 3300	 Instantaneous Values
System
Temperature(K) = 240.5000    
Pressure(kbar) = 259.1234    
ConservedQty   = -961.4716   
ENERGY 
Total     = -980.8700     Kinetic   = 1532.7240     Potential = -2513.5940  
VDW       = -2513.5940    QQ        = 0.0000        Bond      = 0.0000      
BondAngle = 0.0000        Torsion   = 0.0000        Tether    = 0.0000      
VIRIAL 
Total     = -21227.0476   Constraint= 0.0000      
VDW       = -21227.0476   QQ        = 0.0000        Bond      = 0.0000      
BondAngle = 0.0000        Torsion   = 0.0000        Tether    = 0.0000      

--------------------------------------------------------------------------------

Step 3400	 Instantaneous Values
System
Temperature(K) = 240.5000    
Pressure(kbar) = 253.0012    
ConservedQty   = -983.6410   
ENERGY 
Total     = -1002.7772    Kinetic   = 1532.7240     Potential = -2535.5012  
VDW       = -2535.5012    QQ        = 0.0000        Bond      = 0.0000      
BondAngle = 0.0000        Torsion   = 0.0000        Tether    = 0.0000      
VIRIAL 
Total     = -20653.0992   Constraint= 0.0000      
VDW       = -20653.0992   QQ        = 0.0000        Bond      = 0.0000      
BondAngle = 0.0000        Torsion   = 0.0000        Tether    = 0.0000      

--------------------------------------------------------------------------------

Step 3500	 Instantaneous Values
System
Temperature(K) = 240.5000    
Pressure(kbar) = 257.1463    
ConservedQty   = -964.9887   
ENERGY 
Total     = -987.0809     Kinetic   = 1532.7240     Potential = -2519.8049  
VDW       = -2519.8049    QQ        = 0.0000        Bond      = 0.0000      
BondAngle = 0.0000        Torsion   = 0.0000        Tether    = 0.0000      
VIRIAL 
Total     = -21041.6982   Constraint= 0.0000      
VDW       = -21041.6982   QQ        = 0.0000        Bond      = 0.0000      
BondAngle = 0.0000        Torsion   = 0.0000        Tether    = 0.0000      

--------------------------------------------------------------------------------

Step 3600	 Instantaneous Values
System
Temperature(K) = 240.5000    
Pressure(kbar) = 250.9324    
ConservedQty   = -1025.8070  
ENERGY 
Total     = -1046.4350    Kinetic   = 1532.7240     Potential = -2579.1590  
VDW       = -2579.1590    QQ        = 0.0000        Bond      = 0.0000      
BondAngle = 0.0000        Torsion   = 0.0000        Tether    = 0.0000      
VIRIAL 
Total     = -20459.1538   Constraint= 0.0000      
VDW       = -20459.1538   QQ        = 0.0000        Bond      = 0.0000      
BondAngle = 0.0000        Torsion   = 0.0000        Tether    = 0.0000      

--------------------------------------------------------------------------------

Step 3700	 Instantaneous Values
System
Temperature(K) = 240.5000    
Pressure(kbar) = 257.6370    
ConservedQty   = -965.8178   
ENERGY 
Total     = -984.2413     Kinetic   = 1532.7240     Potential = -2516.9653  
VDW       = -2516.9653    QQ        = 0.0000        Bond      = 0.0000      
BondAngle = 0.0000        Torsion   = 0.0000        Tether    = 0.0000      
VIRIAL 
Total     = -21087.7058   Constraint= 0.0000      
VDW       = -21087.7058   QQ        = 0.0000        Bond      = 0.0000      
BondAngle = 0.0000        Torsion   = 0.0000        Tether    = 0.0000      

--------------------------------------------------------------------------------

Step 3800	 Instantaneous Values
System
Temperature(K) = 240.5000    
Pressure(kbar) = 245.0725    
ConservedQty   = -1051.7092  
ENERGY 
Total     = -1065.4249    Kinetic   = 1532.7240     Potential = -2598.1489  
VDW       = -2598.1489    QQ        = 0.0000        Bond      = 0.0000      
BondAngle = 0.0000        Torsion   = 0.0000        Tether    = 0.0000      
VIRIAL 
Total     = -19909.7964   Constraint= 0.0000      
VDW       = -19909.7964   QQ        = 0.0000        Bond      = 0.0000      
BondAngle = 0.0000        Torsion   = 0.0000        Tether    = 0.0000      

--------------------------------------------------------------------------------

Step 3900	 Instantaneous Values
System
Temperature(K) = 240.5000    
Pressure(kbar) = 249.4960    
ConservedQty   = -1028.2704  
ENERGY 
Total     = -1042.1401    Kinetic   = 1532.7240     Potential = -2574.8641  
VDW       = -2574.8641    QQ        = 0.0000        Bond      = 0.0000      
BondAngle = 0.0000        Torsion   = 0.0000        Tether    = 0.0000      
VIRIAL 
Total     = -20324.4927   Constraint= 0.0000      
VDW       = -20324.4927   QQ        = 0.0000        Bond      = 0.0000      
BondAngle = 0.0000        Torsion   = 0.0000        Tether    = 0.0000      

--------------------------------------------------------------------------------

Step 4000	 Instantaneous Values
System
Temperature(K) = 240.5000    
Pressure(kbar) = 251.9316    
ConservedQty   = -1015.2626  
ENERGY 
Total     = -1026.0340    Kinetic   = 1532.7240     Potential = -2558.7580  
VDW       = -2558.7580    QQ        = 0.0000        Bond      = 0.0000      
BondAngle = 0.0000        Torsion   = 0.0000        Tether    = 0.0000      
VIRIAL 
Total     = -20552.8268   Constraint= 0.0000      
VDW       = -20552.8268   QQ        = 0.0000        Bond      = 0.0000      
BondAngle = 0.0000        Torsion   = 0.0000        Tether    = 0.0000      

--------------------------------------------------------------------------------

Step 4100	 Instantaneous Values
System
Temperature(K) = 240.5000    
Pressure(kbar) = 246.3226    
ConservedQty   = -1045.7510  
ENERGY 
Total     = -1057.6173    Kinetic   = 1532.7240     Potential = -2590.3413  
VDW       = -2590.3413    QQ        = 0.0000        Bond      = 0.0000      
BondAngle = 0.0000        Torsion   = 0.0000        Tether    = 0.0000      
VIRIAL 
Total     = -20026.9972   Constraint= 0.0000      
VDW       = -20026.9972   QQ        = 0.0000        Bond      = 0.0000      
BondAngle = 0.0000        Torsion   = 0.0000        Tether    = 0.0000      

--------------------------------------------------------------------------------

Step 4200	 Instantaneous Values
System
Temperature(K) = 240.5000    
Pressure(kbar) = 245.4578    
ConservedQty   = -1066.1121  
ENERGY 
Total     = -1075.9072    Kinetic   = 1532.7240     Potential = -2608.6312  
VDW       = -2608.6312    QQ        = 0.0000        Bond      = 0.0000      
BondAngle = 0.0000        Torsion   = 0.0000        Tether    = 0.0000      
VIRIAL 
Total     = -19945.9144   Constraint= 0.0000      
VDW       = -19945.9144   QQ        = 0.0000        Bond      = 0.0000      
BondAngle = 0.0000        Torsion   = 0.0000        Tether    = 0.0000      

--------------------------------------------------------------------------------

Step 4300	 Instantaneous Values
System
Temperature(K) = 240.5000    
Pressure(kbar) = 262.6782    
ConservedQty   = -956.0543   
ENERGY 
Total     = -963.4134     Kinetic   = 1532.7240     Potential = -2496.1374  
VDW       = -2496.1374    QQ        = 0.0000        Bond      = 0.0000      
BondAngle = 0.0000        Torsion   = 0.0000        Tether    = 0.0000      
VIRIAL 
Total     = -21560.3115   Constraint= 0.0000      
VDW       = -21560.3115   QQ        = 0.0000        Bond      = 0.0000      
BondAngle = 0.0000        Torsion   = 0.0000        Tether    = 0.0000      

--------------------------------------------------------------------------------

Step 4400	 Instantaneous Values
System
Temperature(K) = 240.5000    
Pressure(kbar) = 259.8926    
ConservedQty   = -972.9360   
ENERGY 
Total     = -983.6232     Kinetic   = 1532.7240     Potential = -2516.3472  
VDW       = -2516.3472    QQ        = 0.0000        Bond      = 0.0000      
BondAngle = 0.0000        Torsion   = 0.0000        Tether    = 0.0000      
VIRIAL 
Total     = -21299.1667   Constraint= 0.0000      
VDW       = -21299.1667   QQ        = 0.0000        Bond      = 0.0000      
BondAngle = 0.0000        Torsion   = 0.0000        Tether    = 0.0000      

--------------------------------------------------------------------------------

Step 4500	 Instantaneous Values
System
Temperature(K) = 240.5000    
Pressure(kbar) = 249.5901    
ConservedQty   = -1036.3490  
ENERGY 
Total     = -1043.5407    Kinetic   = 1532.7240     Potential = -2576.2647  
VDW       = -2576.2647    QQ        = 0.0000        Bond      = 0.0000      
BondAngle = 0.0000        Torsion   = 0.0000        Tether    = 0.0000      
VIRIAL 
Total     = -20333.3211   Constraint= 0.0000      
VDW       = -20333.3211   QQ        = 0.0000        Bond      = 0.0000      
BondAngle = 0.0000        Torsion   = 0.0000        Tether    = 0.0000      

--------------------------------------------------------------------------------

Step 4600	 Instantaneous Values
System
Temperature(K) = 240.5000    
Pressure(kbar) = 242.3701    
ConservedQty   = -1080.4933  
ENERGY 
Total     = -1083.5939    Kinetic   = 1532.7240     Potential = -2616.3179  
VDW       = -2616.3179    QQ        = 0.0000        Bond      = 0.0000      
BondAngle = 0.0000        Torsion   = 0.0000        Tether    = 0.0000      
VIRIAL 
Total     = -19656.4462   Constraint= 0.0000      
VDW       = -19656.4462   QQ        = 0.0000        Bond      = 0.0000      
BondAngle = 0.0000        Torsion   = 0.0000        Tether    = 0.0000      

--------------------------------------------------------------------------------

Step 4700	 Instantaneous Values
System
Temperature(K) = 240.5000    
Pressure(kbar) = 238.7855    
ConservedQty   = -1095.0290  
ENERGY 
Total     = -1096.7381    Kinetic   = 1532.7240     Potential = -2629.4621  
VDW       = -2629.4621    QQ        = 0.0000        Bond      = 0.0000      
BondAngle = 0.0000        Torsion   = 0.0000        Tether    = 0.0000      
VIRIAL 
Total     = -19320.3965   Constraint= 0.0000      
VDW       = -19320.3965   QQ        = 0.0000        Bond      = 0.0000      
BondAngle = 0.0000        Torsion   = 0.0000        Tether    = 0.0000      

--------------------------------------------------------------------------------

Step 4800	 Instantaneous Values
System
Temperature(K) = 240.5000    
Pressure(kbar) = 251.1845    
ConservedQty   = -1051.3423  
ENERGY 
Total     = -1049.2555    Kinetic   = 1532.7240     Potential = -2581.9796  
VDW       = -2581.9796    QQ        = 0.0000        Bond      = 0.0000      
BondAngle = 0.0000        Torsion   = 0.0000        Tether    = 0.0000      
VIRIAL 
Total     = -20482.7882   Constraint= 0.0000      
VDW       = -20482.7882   QQ        = 0.0000        Bond      = 0.0000      
BondAngle = 0.0000        Torsion   = 0.0000        Tether    = 0.0000      

--------------------------------------------------------------------------------

Step 4900	 Instantaneous Values
System
Temperature(K) = 240.5000    
Pressure(kbar) = 248.8506    
ConservedQty   = -1044.1711  
ENERGY 
Total     = -1044.4650    Kinetic   = 1532.7240     Potential = -2577.1890  
VDW       = -2577.1890    QQ        = 0.0000        Bond      = 0.0000      
BondAngle = 0.0000        Torsion   = 0.0000        Tether    = 0.0000      
VIRIAL 
Total     = -20263.9934   Constraint= 0.0000      
VDW       = -20263.9934   QQ        = 0.0000        Bond      = 0.0000      
BondAngle = 0.0000        Torsion   = 0.0000        Tether    = 0.0000      

--------------------------------------------------------------------------------

Step 5000	 Instantaneous Values
System
Temperature(K) = 240.5000    
Pressure(kbar) = 254.3860    
ConservedQty   = -1004.7695  
ENERGY 
Total     = -1005.8621    Kinetic   = 1532.7240     Potential = -2538.5861  
VDW       = -2538.5861    QQ        = 0.0000        Bond      = 0.0000      
BondAngle = 0.0000        Torsion   = 0.0000        Tether    = 0.0000      
VIRIAL 
Total     = -20782.9276   Constraint= 0.0000      
VDW       = -20782.9276   QQ        = 0.0000        Bond      = 0.0000      
BondAngle = 0.0000        Torsion   = 0.0000        Tether    = 0.0000      

--------------------------------------------------------------------------------

Step 5100	 Instantaneous Values
System
Temperature(K) = 240.5000    
Pressure(kbar) = 251.5109    
ConservedQty   = -1029.7410  
ENERGY 
Total     = -1032.0685    Kinetic   = 1532.7240     Potential = -2564.7925  
VDW       = -2564.7925    QQ        = 0.0000        Bond      = 0.0000      
BondAngle = 0.0000        Torsion   = 0.0000        Tether    = 0.0000      
VIRIAL 
Total     = -20513.3852   Constraint= 0.0000      
VDW       = -20513.3852   QQ        = 0.0000        Bond      = 0.0000      
BondAngle = 0.0000        Torsion   = 0.0000        Tether    = 0.0000      

--------------------------------------------------------------------------------

Step 5200	 Instantaneous Values
System
Temperature(K) = 240.5000    
Pressure(kbar) = 244.4108    
ConservedQty   = -1064.4619  
ENERGY 
Total     = -1064.6712    Kinetic   = 1532.7240     Potential = -2597.3952  
VDW       = -2597.3952    QQ        = 0.0000        Bond      = 0.0000      
BondAngle = 0.0000        Torsion   = 0.0000        Tether    = 0.0000      
VIRIAL 
Total     = -19847.7665   Constraint= 0.0000      
VDW       = -19847.7665   QQ        = 0.0000        Bond      = 0.0000      
BondAngle = 0.0000        Torsion   = 0.0000        Tether    = 0.0000      

--------------------------------------------------------------------------------

Step 5300	 Instantaneous Values
System
Temperature(K) = 240.5000    
Pressure(kbar) = 244.4844    
ConservedQty   = -1068.7085  
ENERGY 
Total     = -1075.4214    Kinetic   = 1532.7240     Potential = -2608.1454  
VDW       = -2608.1454    QQ        = 0.0000        Bond      = 0.0000      
BondAngle = 0.0000        Torsion   = 0.0000        Tether    = 0.0000      
VIRIAL 
Total     = -19854.6596   Constraint= 0.0000      
VDW       = -19854.6596   QQ        = 0.0000        Bond      = 0.0000      
BondAngle = 0.0000        Torsion   = 0.0000        Tether    = 0.0000      

--------------------------------------------------------------------------------

Step 5400	 Instantaneous Values
System
Temperature(K) = 240.5000    
Pressure(kbar) = 263.3750    
ConservedQty   = -955.5094   
ENERGY 
Total     = -961.8645     Kinetic   = 1532.7240     Potential = -2494.5885  
VDW       = -2494.5885    QQ        = 0.0000        Bond      = 0.0000      
BondAngle = 0.0000        Torsion   = 0.0000        Tether    = 0.0000      
VIRIAL 
Total     = -21625.6322   Constraint= 0.0000      
VDW       = -21625.6322   QQ        = 0.0000        Bond      = 0.0000      
BondAngle = 0.0000        Torsion   = 0.0000        Tether    = 0.0000      

--------------------------------------------------------------------------------

Step 5500	 Instantaneous Values
System
Temperature(K) = 240.5000    
Pressure(kbar) = 237.2283    
ConservedQty   = -1123.7063  
ENERGY 
Total     = -1129.1858    Kinetic   = 1532.7240     Potential = -2661.9098  
VDW       = -2661.9098    QQ        = 0.0000        Bond      = 0.0000      
BondAngle = 0.0000        Torsion   = 0.0000        Tether    = 0.0000      
VIRIAL 
Total     = -19174.4093   Constraint= 0.0000      
VDW       = -19174.4093   QQ        = 0.0000        Bond      = 0.0000      
BondAngle = 0.0000        Torsion   = 0.0000        Tether    = 0.0000      

--------------------------------------------------------------------------------

Step 5600	 Instantaneous Values
System
Temperature(K) = 240.5000    
Pressure(kbar) = 242.0620    
ConservedQty   = -1065.7337  
ENERGY 
Total     = -1071.0090    Kinetic   = 1532.7240     Potential = -2603.7331  
VDW       = -2603.7331    QQ        = 0.0000        Bond      = 0.0000      
BondAngle = 0.0000        Torsion   = 0.0000        Tether    = 0.0000      
VIRIAL 
Total     = -19627.5677   Constraint= 0.0000      
VDW       = -19627.5677   QQ        = 0.0000        Bond      = 0.0000      
BondAngle = 0.0000        Torsion   = 0.0000        Tether    = 0.0000      

--------------------------------------------------------------------------------

Step 5700	 Instantaneous Values
System
Temperature(K) = 240.5000    
Pressure(kbar) = 255.1322    
ConservedQty   = -1004.6952  
ENERGY 
Total     = -1009.4444    Kinetic   = 1532.7240     Potential = -2542.1684  
VDW       = -2542.1684    QQ        = 0.0000        Bond      = 0.0000      
BondAngle = 0.0000        Torsion   = 0.0000        Tether    = 0.0000      
VIRIAL 
Total     = -20852.8817   Constraint= 0.0000      
VDW       = -20852.8817   QQ        = 0.0000        Bond      = 0.0000      
BondAngle = 0.0000        Torsion   = 0.0000        Tether    = 0.0000      

--------------------------------------------------------------------------------

Step 5800	 Instantaneous Values
System
Temperature(K) = 240.5000    
Pressure(kbar) = 250.9699    
ConservedQty   = -1038.0965  
ENERGY 
Total     = -1039.9648    Kinetic   = 1532.7240     Potential = -2572.6888  
VDW       = -2572.6888    QQ        = 0.0000        Bond      = 0.0000      
BondAngle = 0.0000        Torsion   = 0.0000        Tether    = 0.0000      
VIRIAL 
Total     = -20462.6697   Constraint= 0.0000      
VDW       = -20462.6697   QQ        = 0.0000        Bond      = 0.0000      
BondAngle = 0.0000        Torsion   = 0.0000        Tether    = 0.0000      

--------------------------------------------------------------------------------

Step 5900	 Instantaneous Values
System
Temperature(K) = 240.5000    
Pressure(kbar) = 248.7708    
ConservedQty   = -1044.2149  
ENERGY 
Total     = -1051.4164    Kinetic   = 1532.7240     Potential = -2584.1404  
VDW       = -2584.1404    QQ        = 0.0000        Bond      = 0.0000      
BondAngle = 0.0000        Torsion   = 0.0000        Tether    = 0.0000      
VIRIAL 
Total     = -20256.5102   Constraint= 0.0000      
VDW       = -20256.5102   QQ        = 0.0000        Bond      = 0.0000      
BondAngle = 0.0000        Torsion   = 0.0000        Tether    = 0.0000      

--------------------------------------------------------------------------------

Step 6000	 Instantaneous Values
System
Temperature(K) = 240.5000    
Pressure(kbar) = 256.3482    
ConservedQty   = -997.2683   
ENERGY 
Total     = -1004.1503    Kinetic   = 1532.7240     Potential = -2536.8743  
VDW       = -2536.8743    QQ        = 0.0000        Bond      = 0.0000      
BondAngle = 0.0000        Torsion   = 0.0000        Tether    = 0.0000      
VIRIAL 
Total     = -20966.8803   Constraint= 0.0000      
VDW       = -20966.8803   QQ        = 0.0000        Bond      = 0.0000      
BondAngle = 0.0000        Torsion   = 0.0000        Tether    = 0.0000      

--------------------------------------------------------------------------------

Step 6100	 Instantaneous Values
System
Temperature(K) = 240.5000    
Pressure(kbar) = 254.6566    
ConservedQty   = -1007.5249  
ENERGY 
Total     = -1006.9581    Kinetic   = 1532.7240     Potential = -2539.6821  
VDW       = -2539.6821    QQ        = 0.0000        Bond      = 0.0000      
BondAngle = 0.0000        Torsion   = 0.0000        Tether    = 0.0000      
VIRIAL 
Total     = -20808.2947   Constraint= 0.0000      
VDW       = -20808.2947   QQ        = 0.0000        Bond      = 0.0000      
BondAngle = 0.0000        Torsion   = 0.0000        Tether    = 0.0000      

--------------------------------------------------------------------------------

Step 6200	 Instantaneous Values
System
Temperature(K) = 240.5000    
Pressure(kbar) = 257.5613    
ConservedQty   = -997.5224   
ENERGY 
Total     = -995.6784     Kinetic   = 1532.7240     Potential = -2528.4024  
VDW       = -2528.4024    QQ        = 0.0000        Bond      = 0.0000      
BondAngle = 0.0000        Torsion   = 0.0000        Tether    = 0.0000      
VIRIAL 
Total     = -21080.6092   Constraint= 0.0000      
VDW       = -21080.6092   QQ        = 0.0000        Bond      = 0.0000      
BondAngle = 0.0000        Torsion   = 0.0000        Tether    = 0.0000      

--------------------------------------------------------------------------------

Step 6300	 Instantaneous Values
System
Temperature(K) = 240.5000    
Pressure(kbar) = 257.7715    
ConservedQty   = -1012.5529  
ENERGY 
Total     = -1009.6634    Kinetic   = 1532.7240     Potential = -2542.3874  
VDW       = -2542.3874    QQ        = 0.0000        Bond      = 0.0000      
BondAngle = 0.0000        Torsion   = 0.0000        Tether    = 0.0000      
VIRIAL 
Total     = -21100.3149   Constraint= 0.0000      
VDW       = -21100.3149   QQ        = 0.0000        Bond      = 0.0000      
BondAngle = 0.0000        Torsion   = 0.0000        Tether    = 0.0000      

--------------------------------------------------------------------------------

Step 6400	 Instantaneous Values
System
Temperature(K) = 240.5000    
Pressure(kbar) = 243.9167    
ConservedQty   = -1088.7633  
ENERGY 
Total     = -1088.4081    Kinetic   = 1532.7240     Potential = -2621.1321  
VDW       = -2621.1321    QQ        = 0.0000        Bond      = 0.0000      
BondAngle = 0.0000        Torsion   = 0.0000        Tether    = 0.0000      
VIRIAL 
Total     = -19801.4427   Constraint= 0.0000      
VDW       = -19801.4427   QQ        = 0.0000        Bond      = 0.0000      
BondAngle = 0.0000        Torsion   = 0.0000        Tether    = 0.0000      

--------------------------------------------------------------------------------

Step 6500	 Instantaneous Values
System
Temperature(K) = 240.5000    
Pressure(kbar) = 254.6948    
ConservedQty   = -1024.0431  
ENERGY 
Total     = -1021.2127    Kinetic   = 1532.7240     Potential = -2553.9367  
VDW       = -2553.9367    QQ        = 0.0000        Bond      = 0.0000      
BondAngle = 0.0000        Torsion   = 0.0000        Tether    = 0.0000      
VIRIAL 
Total     = -20811.8721   Constraint= 0.0000      
VDW       = -20811.8721   QQ        = 0.0000        Bond      = 0.0000      
BondAngle = 0.0000        Torsion   = 0.0000        Tether    = 0.0000      

--------------------------------------------------------------------------------

Step 6600	 Instantaneous Values
System
Temperature(K) = 240.5000    
Pressure(kbar) = 245.1948    
ConservedQty   = -1066.6900  
ENERGY 
Total     = -1065.8910    Kinetic   = 1532.7240     Potential = -2598.6150  
VDW       = -2598.6150    QQ        = 0.0000        Bond      = 0.0000      
BondAngle = 0.0000        Torsion   = 0.0000        Tether    = 0.0000      
VIRIAL 
Total     = -19921.2640   Constraint= 0.0000      
VDW       = -19921.2640   QQ        = 0.0000        Bond      = 0.0000      
BondAngle = 0.0000        Torsion   = 0.0000        Tether    = 0.0000      

--------------------------------------------------------------------------------

Step 6700	 Instantaneous Values
System
Temperature(K) = 240.5000    
Pressure(kbar) = 253.4827    
ConservedQty   = -1020.0415  
ENERGY 
Total     = -1018.1181    Kinetic   = 1532.7240     Potential = -2550.8421  
VDW       = -2550.8421    QQ        = 0.0000        Bond      = 0.0000      
BondAngle = 0.0000        Torsion   = 0.0000        Tether    = 0.0000      
VIRIAL 
Total     = -20698.2410   Constraint= 0.0000      
VDW       = -20698.2410   QQ        = 0.0000        Bond      = 0.0000      
BondAngle = 0.0000        Torsion   = 0.0000        Tether    = 0.0000      

--------------------------------------------------------------------------------

Step 6800	 Instantaneous Values
System
Temperature(K) = 240.5000    
Pressure(kbar) = 251.2501    
ConservedQty   = -1027.0952  
ENERGY 
Total     = -1027.6080    Kinetic   = 1532.7240     Potential = -2560.3320  
VDW       = -2560.3320    QQ        = 0.0000        Bond      = 0.0000      
BondAngle = 0.0000        Torsion   = 0.0000        Tether    = 0.0000      
VIRIAL 
Total     = -20488.9433   Constraint= 0.0000      
VDW       = -20488.9433   QQ        = 0.0000        Bond      = 0.0000      
BondAngle = 0.0000        Torsion   = 0.0000        Tether    = 0.0000      

--------------------------------------------------------------------------------

Step 6900	 Instantaneous Values
System
Temperature(K) = 240.5000    
Pressure(kbar) = 253.8432    
ConservedQty   = -1010.3854  
ENERGY 
Total     = -1012.5643    Kinetic   = 1532.7240     Potential = -2545.2883  
VDW       = -2545.2883    QQ        = 0.0000        Bond      = 0.0000      
BondAngle = 0.0000        Torsion   = 0.0000        Tether    = 0.0000      
VIRIAL 
Total     = -20732.0371   Constraint= 0.0000      
VDW       = -20732.0371   QQ        = 0.0000        Bond      = 0.0000      
BondAngle = 0.0000        Torsion   = 0.0000        Tether    = 0.0000      

--------------------------------------------------------------------------------

Step 7000	 Instantaneous Values
System
Temperature(K) = 240.5000    
Pressure(kbar) = 259.0980    
ConservedQty   = -975.6959   
ENERGY 
Total     = -980.1349     Kinetic   = 1532.7240     Potential = -2512.8589  
VDW       = -2512.8589    QQ        = 0.0000        Bond      = 0.0000      
BondAngle = 0.0000        Torsion   = 0.0000        Tether    = 0.0000      
VIRIAL 
Total     = -21224.6745   Constraint= 0.0000      
VDW       = -21224.6745   QQ        = 0.0000        Bond      = 0.0000      
BondAngle = 0.0000        Torsion   = 0.0000        Tether    = 0.0000      

--------------------------------------------------------------------------------

Step 7100	 Instantaneous Values
System
Temperature(K) = 240.5000    
Pressure(kbar) = 256.5223    
ConservedQty   = -990.4239   
ENERGY 
Total     = -997.5529     Kinetic   = 1532.7240     Potential = -2530.2769  
VDW       = -2530.2769    QQ        = 0.0000        Bond      = 0.0000      
BondAngle = 0.0000        Torsion   = 0.0000        Tether    = 0.0000      
VIRIAL 
Total     = -20983.1996   Constraint= 0.0000      
VDW       = -20983.1996   QQ        = 0.0000        Bond      = 0.0000      
BondAngle = 0.0000        Torsion   = 0.0000        Tether    = 0.0000      

--------------------------------------------------------------------------------

Step 7200	 Instantaneous Values
System
Temperature(K) = 240.5000    
Pressure(kbar) = 253.8356    
ConservedQty   = -1002.9417  
ENERGY 
Total     = -1010.5100    Kinetic   = 1532.7240     Potential = -2543.2340  
VDW       = -2543.2340    QQ        = 0.0000        Bond      = 0.0000      
BondAngle = 0.0000        Torsion   = 0.0000        Tether    = 0.0000      
VIRIAL 
Total     = -20731.3287   Constraint= 0.0000      
VDW       = -20731.3287   QQ        = 0.0000        Bond      = 0.0000      
BondAngle = 0.0000        Torsion   = 0.0000        Tether    = 0.0000      

--------------------------------------------------------------------------------

Step 7300	 Instantaneous Values
System
Temperature(K) = 240.5000    
Pressure(kbar) = 251.1884    
ConservedQty   = -1022.4760  
ENERGY 
Total     = -1029.5823    Kinetic   = 1532.7240     Potential = -2562.3063  
VDW       = -2562.3063    QQ        = 0.0000        Bond      = 0.0000      
BondAngle = 0.0000        Torsion   = 0.0000        Tether    = 0.0000      
VIRIAL 
Total     = -20483.1566   Constraint= 0.0000      
VDW       = -20483.1566   QQ        = 0.0000        Bond      = 0.0000      
BondAngle = 0.0000        Torsion   = 0.0000        Tether    = 0.0000      

--------------------------------------------------------------------------------

Step 7400	 Instantaneous Values
System
Temperature(K) = 240.5000    
Pressure(kbar) = 245.7353    
ConservedQty   = -1056.8377  
ENERGY 
Total     = -1063.7181    Kinetic   = 1532.7240     Potential = -2596.4421  
VDW       = -2596.4421    QQ        = 0.0000        Bond      = 0.0000      
BondAngle = 0.0000        Torsion   = 0.0000        Tether    = 0.0000      
VIRIAL 
Total     = -19971.9358   Constraint= 0.0000      
VDW       = -19971.9358   QQ        = 0.0000        Bond      = 0.0000      
BondAngle = 0.0000        Torsion   = 0.0000        Tether    = 0.0000      

--------------------------------------------------------------------------------

Step 7500	 Instantaneous Values
System
Temperature(K) = 240.5000    
Pressure(kbar) = 259.8599    
ConservedQty   = -970.9391   
ENERGY 
Total     = -973.2675     Kinetic   = 1532.7240     Potential = -2505.9915  
VDW       = -2505.9915    QQ        = 0.0000        Bond      = 0.0000      
BondAngle = 0.0000        Torsion   = 0.0000        Tether    = 0.0000      
VIRIAL 
Total     = -21296.1015   Constraint= 0.0000      
VDW       = -21296.1015   QQ        = 0.0000        Bond      = 0.0000      
BondAngle = 0.0000        Torsion   = 0.0000        Tether    = 0.0000      

--------------------------------------------------------------------------------

Step 7600	 Instantaneous Values
System
Temperature(K) = 240.5000    
Pressure(kbar) = 252.3073    
ConservedQty   = -1030.2372  
ENERGY 
Total     = -1031.5199    Kinetic   = 1532.7240     Potential = -2564.2439  
VDW       = -2564.2439    QQ        = 0.0000        Bond      = 0.0000      
BondAngle = 0.0000        Torsion   = 0.0000        Tether    = 0.0000      
VIRIAL 
Total     = -20588.0533   Constraint= 0.0000      
VDW       = -20588.0533   QQ        = 0.0000        Bond      = 0.0000      
BondAngle = 0.0000        Torsion   = 0.0000        Tether    = 0.0000      

--------------------------------------------------------------------------------

Step 7700	 Instantaneous Values
System
Temperature(K) = 240.5000    
Pressure(kbar) = 251.2297    
ConservedQty   = -1031.5484  
ENERGY 
Total     = -1029.3243    Kinetic   = 1532.7240     Potential = -2562.0483  
VDW       = -2562.0483    QQ        = 0.0000        Bond      = 0.0000      
BondAngle = 0.0000        Torsion   = 0.0000        Tether    = 0.0000      
VIRIAL 
Total     = -20487.0304   Constraint= 0.0000      
VDW       = -20487.0304   QQ        = 0.0000        Bond      = 0.0000      
BondAngle = 0.0000        Torsion   = 0.0000        Tether    = 0.0000      

--------------------------------------------------------------------------------

Step 7800	 Instantaneous Values
System
Temperature(K) = 240.5000    
Pressure(kbar) = 246.3982    
ConservedQty   = -1056.5538  
ENERGY 
Total     = -1055.7614    Kinetic   = 1532.7240     Potential = -2588.4854  
VDW       = -2588.4854    QQ        = 0.0000        Bond      = 0.0000      
BondAngle = 0.0000        Torsion   = 0.0000        Tether    = 0.0000      
VIRIAL 
Total     = -20034.0767   Constraint= 0.0000      
VDW       = -20034.0767   QQ        = 0.0000        Bond      = 0.0000      
BondAngle = 0.0000        Torsion   = 0.0000        Tether    = 0.0000      

--------------------------------------------------------------------------------

Step 7900	 Instantaneous Values
System
Temperature(K) = 240.5000    
Pressure(kbar) = 249.0721    
ConservedQty   = -1040.5209  
ENERGY 
Total     = -1038.2687    Kinetic   = 1532.7240     Potential = -2570.9927  
VDW       = -2570.9927    QQ        = 0.0000        Bond      = 0.0000      
BondAngle = 0.0000        Torsion   = 0.0000        Tether    = 0.0000      
VIRIAL 
Total     = -20284.7543   Constraint= 0.0000      
VDW       = -20284.7543   QQ        = 0.0000        Bond      = 0.0000      
BondAngle = 0.0000        Torsion   = 0.0000        Tether    = 0.0000      

--------------------------------------------------------------------------------

Step 8000	 Instantaneous Values
System
Temperature(K) = 240.5000    
Pressure(kbar) = 258.7279    
ConservedQty   = -991.6480   
ENERGY 
Total     = -988.4791     Kinetic   = 1532.7240     Potential = -2521.2032  
VDW       = -2521.2032    QQ        = 0.0000        Bond      = 0.0000      
BondAngle = 0.0000        Torsion   = 0.0000        Tether    = 0.0000      
VIRIAL 
Total     = -21189.9707   Constraint= 0.0000      
VDW       = -21189.9707   QQ        = 0.0000        Bond      = 0.0000      
BondAngle = 0.0000        Torsion   = 0.0000        Tether    = 0.0000      

--------------------------------------------------------------------------------

Step 8100	 Instantaneous Values
System
Temperature(K) = 240.5000    
Pressure(kbar) = 255.5098    
ConservedQty   = -1010.9452  
ENERGY 
Total     = -1009.3061    Kinetic   = 1532.7240     Potential = -2542.0301  
VDW       = -2542.0301    QQ        = 0.0000        Bond      = 0.0000      
BondAngle = 0.0000        Torsion   = 0.0000        Tether    = 0.0000      
VIRIAL 
Total     = -20888.2817   Constraint= 0.0000      
VDW       = -20888.2817   QQ        = 0.0000        Bond      = 0.0000      
BondAngle = 0.0000        Torsion   = 0.0000        Tether    = 0.0000      

--------------------------------------------------------------------------------

Step 8200	 Instantaneous Values
System
Temperature(K) = 240.5000    
Pressure(kbar) = 243.4368    
ConservedQty   = -1092.8933  
ENERGY 
Total     = -1087.3175    Kinetic   = 1532.7240     Potential = -2620.0415  
VDW       = -2620.0415    QQ        = 0.0000        Bond      = 0.0000      
BondAngle = 0.0000        Torsion   = 0.0000        Tether    = 0.0000      
VIRIAL 
Total     = -19756.4543   Constraint= 0.0000      
VDW       = -19756.4543   QQ        = 0.0000        Bond      = 0.0000      
BondAngle = 0.0000        Torsion   = 0.0000        Tether    = 0.0000      

--------------------------------------------------------------------------------

Step 8300	 Instantaneous Values
System
Temperature(K) = 240.5000    
Pressure(kbar) = 243.3481    
ConservedQty   = -1088.8624  
ENERGY 
Total     = -1082.2343    Kinetic   = 1532.7240     Potential = -2614.9583  
VDW       = -2614.9583    QQ        = 0.0000        Bond      = 0.0000      
BondAngle = 0.0000        Torsion   = 0.0000        Tether    = 0.0000      
VIRIAL 
Total     = -19748.1392   Constraint= 0.0000      
VDW       = -19748.1392   QQ        = 0.0000        Bond      = 0.0000      
BondAngle = 0.0000        Torsion   = 0.0000        Tether    = 0.0000      

--------------------------------------------------------------------------------

Step 8400	 Instantaneous Values
System
Temperature(K) = 240.5000    
Pressure(kbar) = 255.6951    
ConservedQty   = -998.0242   
ENERGY 
Total     = -992.8462     Kinetic   = 1532.7240     Potential = -2525.5702  
VDW       = -2525.5702    QQ        = 0.0000        Bond      = 0.0000      
BondAngle = 0.0000        Torsion   = 0.0000        Tether    = 0.0000      
VIRIAL 
Total     = -20905.6575   Constraint= 0.0000      
VDW       = -20905.6575   QQ        = 0.0000        Bond      = 0.0000      
BondAngle = 0.0000        Torsion   = 0.0000        Tether    = 0.0000      

--------------------------------------------------------------------------------

Step 8500	 Instantaneous Values
System
Temperature(K) = 240.5000    
Pressure(kbar) = 253.0085    
ConservedQty   = -1036.2903  
ENERGY 
Total     = -1030.8420    Kinetic   = 1532.7240     Potential = -2563.5660  
VDW       = -2563.5660    QQ        = 0.0000        Bond      = 0.0000      
BondAngle = 0.0000        Torsion   = 0.0000        Tether    = 0.0000      
VIRIAL 
Total     = -20653.7853   Constraint= 0.0000      
VDW       = -20653.7853   QQ        = 0.0000        Bond      = 0.0000      
BondAngle = 0.0000        Torsion   = 0.0000        Tether    = 0.0000      

--------------------------------------------------------------------------------

Step 8600	 Instantaneous Values
System
Temperature(K) = 240.5000    
Pressure(kbar) = 240.6265    
ConservedQty   = -1099.4863  
ENERGY 
Total     = -1090.7787    Kinetic   = 1532.7240     Potential = -2623.5027  
VDW       = -2623.5027    QQ        = 0.0000        Bond      = 0.0000      
BondAngle = 0.0000        Torsion   = 0.0000        Tether    = 0.0000      
VIRIAL 
Total     = -19492.9947   Constraint= 0.0000      
VDW       = -19492.9947   QQ        = 0.0000        Bond      = 0.0000      
BondAngle = 0.0000        Torsion   = 0.0000        Tether    = 0.0000      

--------------------------------------------------------------------------------

Step 8700	 Instantaneous Values
System
Temperature(K) = 240.5000    
Pressure(kbar) = 255.4471    
ConservedQty   = -1016.8285  
ENERGY 
Total     = -1006.5917    Kinetic   = 1532.7240     Potential = -2539.3157  
VDW       = -2539.3157    QQ        = 0.0000        Bond      = 0.0000      
BondAngle = 0.0000        Torsion   = 0.0000        Tether    = 0.0000      
VIRIAL 
Total     = -20882.3986   Constraint= 0.0000      
VDW       = -20882.3986   QQ        = 0.0000        Bond      = 0.0000      
BondAngle = 0.0000        Torsion   = 0.0000        Tether    = 0.0000      

--------------------------------------------------------------------------------

Step 8800	 Instantaneous Values
System
Temperature(K) = 240.5000    
Pressure(kbar) = 244.5385    
ConservedQty   = -1078.3627  
ENERGY 
Total     = -1071.5187    Kinetic   = 1532.7240     Potential = -2604.2427  
VDW       = -2604.2427    QQ        = 0.0000        Bond      = 0.0000      
BondAngle = 0.0000        Torsion   = 0.0000        Tether    = 0.0000      
VIRIAL 
Total     = -19859.7390   Constraint= 0.0000      
VDW       = -19859.7390   QQ        = 0.0000        Bond      = 0.0000      
BondAngle = 0.0000        Torsion   = 0.0000        Tether    = 0.0000      

--------------------------------------------------------------------------------

Step 8900	 Instantaneous Values
System
Temperature(K) = 240.5000    
Pressure(kbar) = 248.8498    
ConservedQty   = -1057.3734  
ENERGY 
Total     = -1047.3532    Kinetic   = 1532.7240     Potential = -2580.0772  
VDW       = -2580.0772    QQ        = 0.0000        Bond      = 0.0000      
BondAngle = 0.0000        Torsion   = 0.0000        Tether    = 0.0000      
VIRIAL 
Total     = -20263.9179   Constraint= 0.0000      
VDW       = -20263.9179   QQ        = 0.0000        Bond      = 0.0000      
BondAngle = 0.0000        Torsion   = 0.0000        Tether    = 0.0000      

--------------------------------------------------------------------------------

Step 9000	 Instantaneous Values
System
Temperature(K) = 240.5000    
Pressure(kbar) = 244.9684    
ConservedQty   = -1083.6936  
ENERGY 
Total     = -1073.9688    Kinetic   = 1532.7240     Potential = -2606.6928  
VDW       = -2606.6928    QQ        = 0.0000        Bond      = 0.0000      
BondAngle = 0.0000        Torsion   = 0.0000        Tether    = 0.0000      
VIRIAL 
Total     = -19900.0392   Constraint= 0.0000      
VDW       = -19900.0392   QQ        = 0.0000        Bond      = 0.0000      
BondAngle = 0.0000        Torsion   = 0.0000        Tether    = 0.0000      

--------------------------------------------------------------------------------

Step 9100	 Instantaneous Values
System
Temperature(K) = 240.5000    
Pressure(kbar) = 243.2015    
ConservedQty   = -1083.1872  
ENERGY 
Total     = -1075.6255    Kinetic   = 1532.7240     Potential = -2608.3495  
VDW       = -2608.3495    QQ        = 0.0000        Bond      = 0.0000      
BondAngle = 0.0000        Torsion   = 0.0000        Tether    = 0.0000      
VIRIAL 
Total     = -19734.3907   Constraint= 0.0000      
VDW       = -19734.3907   QQ        = 0.0000        Bond      = 0.0000      
BondAngle = 0.0000        Torsion   = 0.0000        Tether    = 0.0000      

--------------------------------------------------------------------------------

Step 9200	 Instantaneous Values
System
Temperature(K) = 240.5000    
Pressure(kbar) = 261.7623    
ConservedQty   = -980.0641   
ENERGY 
Total     = -974.8061     Kinetic   = 1532.7240     Potential = -2507.5301  
VDW       = -2507.5301    QQ        = 0.0000        Bond      = 0.0000      
BondAngle = 0.0000        Torsion   = 0.0000        Tether    = 0.0000      
VIRIAL 
Total     = -21474.4491   Constraint= 0.0000      
VDW       = -21474.4491   QQ        = 0.0000        Bond      = 0.0000      
BondAngle = 0.0000        Torsion   = 0.0000        Tether    = 0.0000      

--------------------------------------------------------------------------------

Step 9300	 Instantaneous Values
System
Temperature(K) = 240.5000    
Pressure(kbar) = 257.8495    
ConservedQty   = -997.2420   
ENERGY 
Total     = -990.9571     Kinetic   = 1532.7240     Potential = -2523.6811  
VDW       = -2523.6811    QQ        = 0.0000        Bond      = 0.0000      
BondAngle = 0.0000        Torsion   = 0.0000        Tether    = 0.0000      
VIRIAL 
Total     = -21107.6291   Constraint= 0.0000      
VDW       = -21107.6291   QQ        = 0.0000        Bond      = 0.0000      
BondAngle = 0.0000        Torsion   = 0.0000        Tether    = 0.0000      

--------------------------------------------------------------------------------

Step 9400	 Instantaneous Values
System
Temperature(K) = 240.5000    
Pressure(kbar) = 249.6595    
ConservedQty   = -1051.6432  
ENERGY 
Total     = -1045.0061    Kinetic   = 1532.7240     Potential = -2577.7301  
VDW       = -2577.7301    QQ        = 0.0000        Bond      = 0.0000      
BondAngle = 0.0000        Torsion   = 0.0000        Tether    = 0.0000      
VIRIAL 
Total     = -20339.8270   Constraint= 0.0000      
VDW       = -20339.8270   QQ        = 0.0000        Bond      = 0.0000      
BondAngle = 0.0000        Torsion   = 0.0000        Tether    = 0.0000      

--------------------------------------------------------------------------------

Step 9500	 Instantaneous Values
System
Temperature(K) = 240.5000    
Pressure(kbar) = 243.7877    
ConservedQty   = -1083.2303  
ENERGY 
Total     = -1079.0092    Kinetic   = 1532.7240     Potential = -2611.7332  
VDW       = -2611.7332    QQ        = 0.0000        Bond      = 0.0000      
BondAngle = 0.0000        Torsion   = 0.0000        Tether    = 0.0000      
VIRIAL 
Total     = -19789.3503   Constraint= 0.0000      
VDW       = -19789.3503   QQ        = 0.0000        Bond      = 0.0000      
BondAngle = 0.0000        Torsion   = 0.0000        Tether    = 0.0000      

--------------------------------------------------------------------------------

Step 9600	 Instantaneous Values
System
Temperature(K) = 240.5000    
Pressure(kbar) = 249.7768    
ConservedQty   = -1045.0564  
ENERGY 
Total     = -1041.5647    Kinetic   = 1532.7240     Potential = -2574.2887  
VDW       = -2574.2887    QQ        = 0.0000        Bond      = 0.0000      
BondAngle = 0.0000        Torsion   = 0.0000        Tether    = 0.0000      
VIRIAL 
Total     = -20350.8194   Constraint= 0.0000      
VDW       = -20350.8194   QQ        = 0.0000        Bond      = 0.0000      
BondAngle = 0.0000        Torsion   = 0.0000        Tether    = 0.0000      

--------------------------------------------------------------------------------

Step 9700	 Instantaneous Values
System
Temperature(K) = 240.5000    
Pressure(kbar) = 252.8440    
ConservedQty   = -1030.9398  
ENERGY 
Total     = -1025.3673    Kinetic   = 1532.7240     Potential = -2558.0913  
VDW       = -2558.0913    QQ        = 0.0000        Bond      = 0.0000      
BondAngle = 0.0000        Torsion   = 0.0000        Tether    = 0.0000      
VIRIAL 
Total     = -20638.3636   Constraint= 0.0000      
VDW       = -20638.3636   QQ        = 0.0000        Bond      = 0.0000      
BondAngle = 0.0000        Torsion   = 0.0000        Tether    = 0.0000      

--------------------------------------------------------------------------------

Step 9800	 Instantaneous Values
System
Temperature(K) = 240.5000    
Pressure(kbar) = 247.3903    
ConservedQty   = -1061.8326  
ENERGY 
Total     = -1058.2123    Kinetic   = 1532.7240     Potential = -2590.9363  
VDW       = -2590.9363    QQ        = 0.0000        Bond      = 0.0000      
BondAngle = 0.0000        Torsion   = 0.0000        Tether    = 0.0000      
VIRIAL 
Total     = -20127.0921   Constraint= 0.0000      
VDW       = -20127.0921   QQ        = 0.0000        Bond      = 0.0000      
BondAngle = 0.0000        Torsion   = 0.0000        Tether    = 0.0000      

--------------------------------------------------------------------------------

Step 9900	 Instantaneous Values
System
Temperature(K) = 240.5000    
Pressure(kbar) = 251.8429    
ConservedQty   = -1033.6691  
ENERGY 
Total     = -1031.1199    Kinetic   = 1532.7240     Potential = -2563.8439  
VDW       = -2563.8439    QQ        = 0.0000        Bond      = 0.0000      
BondAngle = 0.0000        Torsion   = 0.0000        Tether    = 0.0000      
VIRIAL 
Total     = -20544.5104   Constraint= 0.0000      
VDW       = -20544.5104   QQ        = 0.0000        Bond      = 0.0000      
BondAngle = 0.0000        Torsion   = 0.0000        Tether    = 0.0000      

--------------------------------------------------------------------------------

Step 10000	 Instantaneous Values
System
Temperature(K) = 240.5000    
Pressure(kbar) = 243.2906    
ConservedQty   = -1080.4224  
ENERGY 
Total     = -1085.6551    Kinetic   = 1532.7240     Potential = -2618.3791  
VDW       = -2618.3791    QQ        = 0.0000        Bond      = 0.0000      
BondAngle = 0.0000        Torsion   = 0.0000        Tether    = 0.0000      
VIRIAL 
Total     = -19742.7458   Constraint= 0.0000      
VDW       = -19742.7458   QQ        = 0.0000        Bond      = 0.0000      
BondAngle = 0.0000        Torsion   = 0.0000        Tether    = 0.0000      

--------------------------------------------------------------------------------

Step 10100	 Instantaneous Values
System
Temperature(K) = 240.6459    
Pressure(kbar) = 258.1320    
ConservedQty   = -1081.8374  
ENERGY 
Total     = -994.0084     Kinetic   = 1533.6541     Potential = -2527.6625  
VDW       = -2527.6625    QQ        = 0.0000        Bond      = 0.0000      
BondAngle = 0.0000        Torsion   = 0.0000        Tether    = 0.0000      
VIRIAL 
Total     = -21132.2495   Constraint= 0.0000      
VDW       = -21132.2495   QQ        = 0.0000        Bond      = 0.0000      
BondAngle = 0.0000        Torsion   = 0.0000        Tether    = 0.0000      

MeanSquaredDisplacement
Species1
Atom 1: 0.198864 
--------------------------------------------------------------------------------

Step 10200	 Instantaneous Values
System
Temperature(K) = 237.9604    
Pressure(kbar) = 249.0018    
ConservedQty   = -1080.1083  
ENERGY 
Total     = -1054.4334    Kinetic   = 1516.5392     Potential = -2570.9727  
VDW       = -2570.9727    QQ        = 0.0000        Bond      = 0.0000      
BondAngle = 0.0000        Torsion   = 0.0000        Tether    = 0.0000      
VIRIAL 
Total     = -20310.5366   Constraint= 0.0000      
VDW       = -20310.5366   QQ        = 0.0000        Bond      = 0.0000      
BondAngle = 0.0000        Torsion   = 0.0000        Tether    = 0.0000      

MeanSquaredDisplacement
Species1
Atom 1: 0.369061 
--------------------------------------------------------------------------------

Step 10300	 Instantaneous Values
System
Temperature(K) = 221.1135    
Pressure(kbar) = 249.8239    
ConservedQty   = -1080.2763  
ENERGY 
Total     = -1157.2760    Kinetic   = 1409.1725     Potential = -2566.4485  
VDW       = -2566.4485    QQ        = 0.0000        Bond      = 0.0000      
BondAngle = 0.0000        Torsion   = 0.0000        Tether    = 0.0000      
VIRIAL 
Total     = -20602.3355   Constraint= 0.0000      
VDW       = -20602.3355   QQ        = 0.0000        Bond      = 0.0000      
BondAngle = 0.0000        Torsion   = 0.0000        Tether    = 0.0000      

MeanSquaredDisplacement
Species1
Atom 1: 0.541575 
--------------------------------------------------------------------------------

Step 10400	 Instantaneous Values
System
Temperature(K) = 262.5070    
Pressure(kbar) = 253.4625    
ConservedQty   = -1079.7921  
ENERGY 
Total     = -899.3079     Kinetic   = 1672.9762     Potential = -2572.2841  
VDW       = -2572.2841    QQ        = 0.0000        Bond      = 0.0000      
BondAngle = 0.0000        Torsion   = 0.0000        Tether    = 0.0000      
VIRIAL 
Total     = -20415.8420   Constraint= 0.0000      
VDW       = -20415.8420   QQ        = 0.0000        Bond      = 0.0000      
BondAngle = 0.0000        Torsion   = 0.0000        Tether    = 0.0000      

MeanSquaredDisplacement
Species1
Atom 1: 0.705152 
--------------------------------------------------------------------------------

Step 10500	 Instantaneous Values
System
Temperature(K) = 221.2931    
Pressure(kbar) = 232.3736    
ConservedQty   = -1080.0754  
ENERGY 
Total     = -1252.9039    Kinetic   = 1410.3173     Potential = -2663.2211  
VDW       = -2663.2211    QQ        = 0.0000        Bond      = 0.0000      
BondAngle = 0.0000        Torsion   = 0.0000        Tether    = 0.0000      
VIRIAL 
Total     = -18964.1047   Constraint= 0.0000      
VDW       = -18964.1047   QQ        = 0.0000        Bond      = 0.0000      
BondAngle = 0.0000        Torsion   = 0.0000        Tether    = 0.0000      

MeanSquaredDisplacement
Species1
Atom 1: 0.900012 
--------------------------------------------------------------------------------

Step 10600	 Instantaneous Values
System
Temperature(K) = 257.9615    
Pressure(kbar) = 260.2151    
ConservedQty   = -1081.1016  
ENERGY 
Total     = -880.1115     Kinetic   = 1644.0076     Potential = -2524.1191  
VDW       = -2524.1191    QQ        = 0.0000        Bond      = 0.0000      
BondAngle = 0.0000        Torsion   = 0.0000        Tether    = 0.0000      
VIRIAL 
Total     = -21106.8335   Constraint= 0.0000      
VDW       = -21106.8335   QQ        = 0.0000        Bond      = 0.0000      
BondAngle = 0.0000        Torsion   = 0.0000        Tether    = 0.0000      

MeanSquaredDisplacement
Species1
Atom 1: 0.993213 
--------------------------------------------------------------------------------

Step 10700	 Instantaneous Values
System
Temperature(K) = 229.8623    
Pressure(kbar) = 247.0436    
ConservedQty   = -1079.4131  
ENERGY 
Total     = -1121.3109    Kinetic   = 1464.9293     Potential = -2586.2402  
VDW       = -2586.2402    QQ        = 0.0000        Bond      = 0.0000      
BondAngle = 0.0000        Torsion   = 0.0000        Tether    = 0.0000      
VIRIAL 
Total     = -20230.1771   Constraint= 0.0000      
VDW       = -20230.1771   QQ        = 0.0000        Bond      = 0.0000      
BondAngle = 0.0000        Torsion   = 0.0000        Tether    = 0.0000      

MeanSquaredDisplacement
Species1
Atom 1: 1.14036 
--------------------------------------------------------------------------------

Step 10800	 Instantaneous Values
System
Temperature(K) = 236.7211    
Pressure(kbar) = 250.7503    
ConservedQty   = -1080.5542  
ENERGY 
Total     = -1055.5262    Kinetic   = 1508.6407     Potential = -2564.1668  
VDW       = -2564.1668    QQ        = 0.0000        Bond      = 0.0000      
BondAngle = 0.0000        Torsion   = 0.0000        Tether    = 0.0000      
VIRIAL 
Total     = -20490.2549   Constraint= 0.0000      
VDW       = -20490.2549   QQ        = 0.0000        Bond      = 0.0000      
BondAngle = 0.0000        Torsion   = 0.0000        Tether    = 0.0000      

MeanSquaredDisplacement
Species1
Atom 1: 1.27004 
--------------------------------------------------------------------------------

Step 10900	 Instantaneous Values
System
Temperature(K) = 257.4659    
Pressure(kbar) = 259.4371    
ConservedQty   = -1080.9579  
ENERGY 
Total     = -889.8920     Kinetic   = 1640.8489     Potential = -2530.7409  
VDW       = -2530.7409    QQ        = 0.0000        Bond      = 0.0000      
BondAngle = 0.0000        Torsion   = 0.0000        Tether    = 0.0000      
VIRIAL 
Total     = -21040.2086   Constraint= 0.0000      
VDW       = -21040.2086   QQ        = 0.0000        Bond      = 0.0000      
BondAngle = 0.0000        Torsion   = 0.0000        Tether    = 0.0000      

MeanSquaredDisplacement
Species1
Atom 1: 1.47346 
--------------------------------------------------------------------------------

Step 11000	 Instantaneous Values
System
Temperature(K) = 232.6210    
Pressure(kbar) = 234.7972    
ConservedQty   = -1082.3997  
ENERGY 
Total     = -1175.9154    Kinetic   = 1482.5105     Potential = -2658.4259  
VDW       = -2658.4259    QQ        = 0.0000        Bond      = 0.0000      
BondAngle = 0.0000        Torsion   = 0.0000        Tether    = 0.0000      
VIRIAL 
Total     = -19046.9299   Constraint= 0.0000      
VDW       = -19046.9299   QQ        = 0.0000        Bond      = 0.0000      
BondAngle = 0.0000        Torsion   = 0.0000        Tether    = 0.0000      

MeanSquaredDisplacement
Species1
Atom 1: 1.63583 
--------------------------------------------------------------------------------

Step 11000	Averages
System
CELL
   A          B          C          Alpha      Beta       Gamma   
    8.0000     8.0000     8.0000    90.0000    90.0000    90.0000
Lattice vectors
   8.0000000000e+00    0.0000000000e+00    0.0000000000e+00
   6.1230317691e-38    8.0000000000e+00    0.0000000000e+00
   6.1230317691e-38    6.1230317691e-38    8.0000000000e+00
Cell Volume: 512   
Cell Type: Cubic    PBCType: CUBIC

Temperature(K) = 239.8152    
Pressure(kbar) = 249.5037    
ConservedQty   = -1080.6516  
ENERGY 
Total     = -1048.0685    Kinetic   = 1528.3596     Potential = -2576.4282  
VDW       = -2576.4282    QQ        = 0.0000        Bond      = 0.0000      
BondAngle = 0.0000        Torsion   = 0.0000        Tether    = 0.0000      
VIRIAL 
Total     = -20333.9472   Constraint= 0.0000      
VDW       = -20333.9472   QQ        = 0.0000        Bond      = 0.0000      
BondAngle = 0.0000        Torsion   = 0.0000        Tether    = 0.0000      

--------------------------------------------------------------------------------

--------------------------------------------------------------------------------

Step 11100	 Instantaneous Values
System
Temperature(K) = 257.0268    
Pressure(kbar) = 255.9366    
ConservedQty   = -1079.5607  
ENERGY 
Total     = -907.0932     Kinetic   = 1638.0504     Potential = -2545.1436  
VDW       = -2545.1436    QQ        = 0.0000        Bond      = 0.0000      
BondAngle = 0.0000        Torsion   = 0.0000        Tether    = 0.0000      
VIRIAL 
Total     = -20717.6359   Constraint= 0.0000      
VDW       = -20717.6359   QQ        = 0.0000        Bond      = 0.0000      
BondAngle = 0.0000        Torsion   = 0.0000        Tether    = 0.0000      

MeanSquaredDisplacement
Species1
Atom 1: 1.8233 
--------------------------------------------------------------------------------

Step 11200	 Instantaneous Values
System
Temperature(K) = 237.3608    
Pressure(kbar) = 240.3555    
ConservedQty   = -1079.8937  
ENERGY 
Total     = -1123.7377    Kinetic   = 1512.7176     Potential = -2636.4553  
VDW       = -2636.4553    QQ        = 0.0000        Bond      = 0.0000      
BondAngle = 0.0000        Torsion   = 0.0000        Tether    = 0.0000      
VIRIAL 
Total     = -19507.5976   Constraint= 0.0000      
VDW       = -19507.5976   QQ        = 0.0000        Bond      = 0.0000      
BondAngle = 0.0000        Torsion   = 0.0000        Tether    = 0.0000      

MeanSquaredDisplacement
Species1
Atom 1: 1.98353 
--------------------------------------------------------------------------------

Step 11300	 Instantaneous Values
System
Temperature(K) = 240.5594    
Pressure(kbar) = 247.1407    
ConservedQty   = -1081.0906  
ENERGY 
Total     = -1061.3026    Kinetic   = 1533.1024     Potential = -2594.4050  
VDW       = -2594.4050    QQ        = 0.0000        Bond      = 0.0000      
BondAngle = 0.0000        Torsion   = 0.0000        Tether    = 0.0000      
VIRIAL 
Total     = -20102.9307   Constraint= 0.0000      
VDW       = -20102.9307   QQ        = 0.0000        Bond      = 0.0000      
BondAngle = 0.0000        Torsion   = 0.0000        Tether    = 0.0000      

MeanSquaredDisplacement
Species1
Atom 1: 2.21759 
--------------------------------------------------------------------------------

Step 11400	 Instantaneous Values
System
Temperature(K) = 232.6260    
Pressure(kbar) = 256.8628    
ConservedQty   = -1080.2570  
ENERGY 
Total     = -1041.9456    Kinetic   = 1482.5427     Potential = -2524.4883  
VDW       = -2524.4883    QQ        = 0.0000        Bond      = 0.0000      
BondAngle = 0.0000        Torsion   = 0.0000        Tether    = 0.0000      
VIRIAL 
Total     = -21115.4833   Constraint= 0.0000      
[...]
VDW       = -2624.7695    QQ        = 0.0000        Bond      = 0.0000      
BondAngle = 0.0000        Torsion   = 0.0000        Tether    = 0.0000      
VIRIAL 
Total     = -19533.0177   Constraint= 0.0000      
VDW       = -19533.0177   QQ        = 0.0000        Bond      = 0.0000      
BondAngle = 0.0000        Torsion   = 0.0000        Tether    = 0.0000      

MeanSquaredDisplacement
Species1
Atom 1: 805.197 
--------------------------------------------------------------------------------

Step 498000	 Instantaneous Values
System
Temperature(K) = 253.8708    
Pressure(kbar) = 244.5628    
ConservedQty   = -1082.1951  
ENERGY 
Total     = -995.8685     Kinetic   = 1617.9369     Potential = -2613.8054  
VDW       = -2613.8054    QQ        = 0.0000        Bond      = 0.0000      
BondAngle = 0.0000        Torsion   = 0.0000        Tether    = 0.0000      
VIRIAL 
Total     = -19691.5858   Constraint= 0.0000      
VDW       = -19691.5858   QQ        = 0.0000        Bond      = 0.0000      
BondAngle = 0.0000        Torsion   = 0.0000        Tether    = 0.0000      

MeanSquaredDisplacement
Species1
Atom 1: 805.152 
--------------------------------------------------------------------------------

Step 498000	Averages
System
CELL
   A          B          C          Alpha      Beta       Gamma   
    8.0000     8.0000     8.0000    90.0000    90.0000    90.0000
Lattice vectors
   8.0000000000e+00    0.0000000000e+00    0.0000000000e+00
   1.2547196248e-40    8.0000000000e+00    0.0000000000e+00
   1.2547196248e-40    1.2547196248e-40    8.0000000000e+00
Cell Volume: 512   
Cell Type: Cubic    PBCType: CUBIC

Temperature(K) = 240.5912    
Pressure(kbar) = 249.5958    
ConservedQty   = -1078.4723  
ENERGY 
Total     = -1042.0535    Kinetic   = 1533.3055     Potential = -2575.3590  
VDW       = -2575.3590    QQ        = 0.0000        Bond      = 0.0000      
BondAngle = 0.0000        Torsion   = 0.0000        Tether    = 0.0000      
VIRIAL 
Total     = -20332.6881   Constraint= 0.0000      
VDW       = -20332.6881   QQ        = 0.0000        Bond      = 0.0000      
BondAngle = 0.0000        Torsion   = 0.0000        Tether    = 0.0000      

--------------------------------------------------------------------------------

--------------------------------------------------------------------------------

Step 498100	 Instantaneous Values
System
Temperature(K) = 242.3195    
Pressure(kbar) = 250.7370    
ConservedQty   = -1080.1056  
ENERGY 
Total     = -1026.0075    Kinetic   = 1544.3201     Potential = -2570.3276  
VDW       = -2570.3276    QQ        = 0.0000        Bond      = 0.0000      
BondAngle = 0.0000        Torsion   = 0.0000        Tether    = 0.0000      
VIRIAL 
Total     = -20417.6441   Constraint= 0.0000      
VDW       = -20417.6441   QQ        = 0.0000        Bond      = 0.0000      
BondAngle = 0.0000        Torsion   = 0.0000        Tether    = 0.0000      

MeanSquaredDisplacement
Species1
Atom 1: 804.448 
--------------------------------------------------------------------------------

Step 498200	 Instantaneous Values
System
Temperature(K) = 240.4776    
Pressure(kbar) = 239.3309    
ConservedQty   = -1079.3742  
ENERGY 
Total     = -1107.7432    Kinetic   = 1532.5810     Potential = -2640.3242  
VDW       = -2640.3242    QQ        = 0.0000        Bond      = 0.0000      
BondAngle = 0.0000        Torsion   = 0.0000        Tether    = 0.0000      
VIRIAL 
Total     = -19371.8128   Constraint= 0.0000      
VDW       = -19371.8128   QQ        = 0.0000        Bond      = 0.0000      
BondAngle = 0.0000        Torsion   = 0.0000        Tether    = 0.0000      

MeanSquaredDisplacement
Species1
Atom 1: 805.007 
--------------------------------------------------------------------------------

Step 498300	 Instantaneous Values
System
Temperature(K) = 243.1976    
Pressure(kbar) = 261.9208    
ConservedQty   = -1081.3660  
ENERGY 
Total     = -954.3183     Kinetic   = 1549.9158     Potential = -2504.2341  
VDW       = -2504.2341    QQ        = 0.0000        Bond      = 0.0000      
BondAngle = 0.0000        Torsion   = 0.0000        Tether    = 0.0000      
VIRIAL 
Total     = -21454.9202   Constraint= 0.0000      
VDW       = -21454.9202   QQ        = 0.0000        Bond      = 0.0000      
BondAngle = 0.0000        Torsion   = 0.0000        Tether    = 0.0000      

MeanSquaredDisplacement
Species1
Atom 1: 805.561 
--------------------------------------------------------------------------------

Step 498400	 Instantaneous Values
System
Temperature(K) = 230.3667    
Pressure(kbar) = 246.9431    
ConservedQty   = -1081.8223  
ENERGY 
Total     = -1115.1434    Kinetic   = 1468.1440     Potential = -2583.2875  
VDW       = -2583.2875    QQ        = 0.0000        Bond      = 0.0000      
BondAngle = 0.0000        Torsion   = 0.0000        Tether    = 0.0000      
VIRIAL 
Total     = -20214.3226   Constraint= 0.0000      
VDW       = -20214.3226   QQ        = 0.0000        Bond      = 0.0000      
BondAngle = 0.0000        Torsion   = 0.0000        Tether    = 0.0000      

MeanSquaredDisplacement
Species1
Atom 1: 805.74 
--------------------------------------------------------------------------------

Step 498500	 Instantaneous Values
System
Temperature(K) = 263.6804    
Pressure(kbar) = 239.8331    
ConservedQty   = -1081.2595  
ENERGY 
Total     = -974.8472     Kinetic   = 1680.4544     Potential = -2655.3016  
VDW       = -2655.3016    QQ        = 0.0000        Bond      = 0.0000      
BondAngle = 0.0000        Torsion   = 0.0000        Tether    = 0.0000      
VIRIAL 
Total     = -19123.1449   Constraint= 0.0000      
VDW       = -19123.1449   QQ        = 0.0000        Bond      = 0.0000      
BondAngle = 0.0000        Torsion   = 0.0000        Tether    = 0.0000      

MeanSquaredDisplacement
Species1
Atom 1: 805.516 
--------------------------------------------------------------------------------

Step 498600	 Instantaneous Values
System
Temperature(K) = 224.8232    
Pressure(kbar) = 247.4217    
ConservedQty   = -1080.1588  
ENERGY 
Total     = -1143.1358    Kinetic   = 1432.8147     Potential = -2575.9505  
VDW       = -2575.9505    QQ        = 0.0000        Bond      = 0.0000      
BondAngle = 0.0000        Torsion   = 0.0000        Tether    = 0.0000      
VIRIAL 
Total     = -20329.8506   Constraint= 0.0000      
VDW       = -20329.8506   QQ        = 0.0000        Bond      = 0.0000      
BondAngle = 0.0000        Torsion   = 0.0000        Tether    = 0.0000      

MeanSquaredDisplacement
Species1
Atom 1: 804.827 
--------------------------------------------------------------------------------

Step 498700	 Instantaneous Values
System
Temperature(K) = 240.8463    
Pressure(kbar) = 249.3994    
ConservedQty   = -1081.3519  
ENERGY 
Total     = -1045.2916    Kinetic   = 1534.9310     Potential = -2580.2226  
VDW       = -2580.2226    QQ        = 0.0000        Bond      = 0.0000      
BondAngle = 0.0000        Torsion   = 0.0000        Tether    = 0.0000      
VIRIAL 
Total     = -20311.0241   Constraint= 0.0000      
VDW       = -20311.0241   QQ        = 0.0000        Bond      = 0.0000      
BondAngle = 0.0000        Torsion   = 0.0000        Tether    = 0.0000      

MeanSquaredDisplacement
Species1
Atom 1: 805.006 
--------------------------------------------------------------------------------

Step 498800	 Instantaneous Values
System
Temperature(K) = 231.1027    
Pressure(kbar) = 264.1583    
ConservedQty   = -1080.2607  
ENERGY 
Total     = -1002.9161    Kinetic   = 1472.8344     Potential = -2475.7505  
VDW       = -2475.7505    QQ        = 0.0000        Bond      = 0.0000      
BondAngle = 0.0000        Torsion   = 0.0000        Tether    = 0.0000      
VIRIAL 
Total     = -21818.8447   Constraint= 0.0000      
VDW       = -21818.8447   QQ        = 0.0000        Bond      = 0.0000      
BondAngle = 0.0000        Torsion   = 0.0000        Tether    = 0.0000      

MeanSquaredDisplacement
Species1
Atom 1: 803.844 
--------------------------------------------------------------------------------

Step 498900	 Instantaneous Values
System
Temperature(K) = 243.8224    
Pressure(kbar) = 245.4229    
ConservedQty   = -1081.2613  
ENERGY 
Total     = -1056.1621    Kinetic   = 1553.8981     Potential = -2610.0602  
VDW       = -2610.0602    QQ        = 0.0000        Bond      = 0.0000      
BondAngle = 0.0000        Torsion   = 0.0000        Tether    = 0.0000      
VIRIAL 
Total     = -19900.3009   Constraint= 0.0000      
VDW       = -19900.3009   QQ        = 0.0000        Bond      = 0.0000      
BondAngle = 0.0000        Torsion   = 0.0000        Tether    = 0.0000      

MeanSquaredDisplacement
Species1
Atom 1: 803.88 
--------------------------------------------------------------------------------

Step 499000	 Instantaneous Values
System
Temperature(K) = 233.5604    
Pressure(kbar) = 250.9139    
ConservedQty   = -1082.4957  
ENERGY 
Total     = -1074.1059    Kinetic   = 1488.4973     Potential = -2562.6032  
VDW       = -2562.6032    QQ        = 0.0000        Bond      = 0.0000      
BondAngle = 0.0000        Torsion   = 0.0000        Tether    = 0.0000      
VIRIAL 
Total     = -20545.8709   Constraint= 0.0000      
VDW       = -20545.8709   QQ        = 0.0000        Bond      = 0.0000      
BondAngle = 0.0000        Torsion   = 0.0000        Tether    = 0.0000      

MeanSquaredDisplacement
Species1
Atom 1: 804.394 
--------------------------------------------------------------------------------

Step 499000	Averages
System
CELL
   A          B          C          Alpha      Beta       Gamma   
    8.0000     8.0000     8.0000    90.0000    90.0000    90.0000
Lattice vectors
   8.0000000000e+00    0.0000000000e+00    0.0000000000e+00
   1.2521537360e-40    8.0000000000e+00    0.0000000000e+00
   1.2521537360e-40    1.2521537360e-40    8.0000000000e+00
Cell Volume: 512   
Cell Type: Cubic    PBCType: CUBIC

Temperature(K) = 240.5889    
Pressure(kbar) = 249.5958    
ConservedQty   = -1078.4773  
ENERGY 
Total     = -1042.0697    Kinetic   = 1533.2903     Potential = -2575.3599  
VDW       = -2575.3599    QQ        = 0.0000        Bond      = 0.0000      
BondAngle = 0.0000        Torsion   = 0.0000        Tether    = 0.0000      
VIRIAL 
Total     = -20332.7209   Constraint= 0.0000      
VDW       = -20332.7209   QQ        = 0.0000        Bond      = 0.0000      
BondAngle = 0.0000        Torsion   = 0.0000        Tether    = 0.0000      

--------------------------------------------------------------------------------

--------------------------------------------------------------------------------

Step 499100	 Instantaneous Values
System
Temperature(K) = 249.8497    
Pressure(kbar) = 249.7695    
ConservedQty   = -1080.4862  
ENERGY 
Total     = -981.3445     Kinetic   = 1592.3103     Potential = -2573.6547  
VDW       = -2573.6547    QQ        = 0.0000        Bond      = 0.0000      
BondAngle = 0.0000        Torsion   = 0.0000        Tether    = 0.0000      
VIRIAL 
Total     = -20230.9589   Constraint= 0.0000      
VDW       = -20230.9589   QQ        = 0.0000        Bond      = 0.0000      
BondAngle = 0.0000        Torsion   = 0.0000        Tether    = 0.0000      

MeanSquaredDisplacement
Species1
Atom 1: 805.254 
--------------------------------------------------------------------------------

Step 499200	 Instantaneous Values
System
Temperature(K) = 243.4222    
Pressure(kbar) = 252.0951    
ConservedQty   = -1081.2755  
ENERGY 
Total     = -1021.6039    Kinetic   = 1551.3473     Potential = -2572.9512  
VDW       = -2572.9512    QQ        = 0.0000        Bond      = 0.0000      
BondAngle = 0.0000        Torsion   = 0.0000        Tether    = 0.0000      
VIRIAL 
Total     = -20530.9074   Constraint= 0.0000      
VDW       = -20530.9074   QQ        = 0.0000        Bond      = 0.0000      
BondAngle = 0.0000        Torsion   = 0.0000        Tether    = 0.0000      

MeanSquaredDisplacement
Species1
Atom 1: 804.914 
--------------------------------------------------------------------------------

Step 499300	 Instantaneous Values
System
Temperature(K) = 228.1189    
Pressure(kbar) = 245.9762    
ConservedQty   = -1081.3962  
ENERGY 
Total     = -1135.3874    Kinetic   = 1453.8184     Potential = -2589.2058  
VDW       = -2589.2058    QQ        = 0.0000        Bond      = 0.0000      
BondAngle = 0.0000        Torsion   = 0.0000        Tether    = 0.0000      
VIRIAL 
Total     = -20152.3279   Constraint= 0.0000      
VDW       = -20152.3279   QQ        = 0.0000        Bond      = 0.0000      
BondAngle = 0.0000        Torsion   = 0.0000        Tether    = 0.0000      

MeanSquaredDisplacement
Species1
Atom 1: 805.881 
--------------------------------------------------------------------------------

Step 499400	 Instantaneous Values
System
Temperature(K) = 250.7439    
Pressure(kbar) = 262.8604    
ConservedQty   = -1080.0226  
ENERGY 
Total     = -908.4654     Kinetic   = 1598.0090     Potential = -2506.4744  
VDW       = -2506.4744    QQ        = 0.0000        Bond      = 0.0000      
BondAngle = 0.0000        Torsion   = 0.0000        Tether    = 0.0000      
VIRIAL 
Total     = -21446.8232   Constraint= 0.0000      
VDW       = -21446.8232   QQ        = 0.0000        Bond      = 0.0000      
BondAngle = 0.0000        Torsion   = 0.0000        Tether    = 0.0000      

MeanSquaredDisplacement
Species1
Atom 1: 805.836 
--------------------------------------------------------------------------------

Step 499500	 Instantaneous Values
System
Temperature(K) = 221.0123    
Pressure(kbar) = 247.8133    
ConservedQty   = -1079.9413  
ENERGY 
Total     = -1160.6650    Kinetic   = 1408.5274     Potential = -2569.1924  
VDW       = -2569.1924    QQ        = 0.0000        Bond      = 0.0000      
BondAngle = 0.0000        Torsion   = 0.0000        Tether    = 0.0000      
VIRIAL 
Total     = -20415.1385   Constraint= 0.0000      
VDW       = -20415.1385   QQ        = 0.0000        Bond      = 0.0000      
BondAngle = 0.0000        Torsion   = 0.0000        Tether    = 0.0000      

MeanSquaredDisplacement
Species1
Atom 1: 806.497 
--------------------------------------------------------------------------------

Step 499600	 Instantaneous Values
System
Temperature(K) = 260.0982    
Pressure(kbar) = 254.1456    
ConservedQty   = -1080.4464  
ENERGY 
Total     = -898.7501     Kinetic   = 1657.6250     Potential = -2556.3751  
VDW       = -2556.3751    QQ        = 0.0000        Bond      = 0.0000      
BondAngle = 0.0000        Torsion   = 0.0000        Tether    = 0.0000      
VIRIAL 
Total     = -20510.5844   Constraint= 0.0000      
VDW       = -20510.5844   QQ        = 0.0000        Bond      = 0.0000      
BondAngle = 0.0000        Torsion   = 0.0000        Tether    = 0.0000      

MeanSquaredDisplacement
Species1
Atom 1: 806.895 
--------------------------------------------------------------------------------

Step 499700	 Instantaneous Values
System
Temperature(K) = 216.6797    
Pressure(kbar) = 241.3409    
ConservedQty   = -1080.6667  
ENERGY 
Total     = -1213.6118    Kinetic   = 1380.9157     Potential = -2594.5275  
VDW       = -2594.5275    QQ        = 0.0000        Bond      = 0.0000      
BondAngle = 0.0000        Torsion   = 0.0000        Tether    = 0.0000      
VIRIAL 
Total     = -19863.5789   Constraint= 0.0000      
VDW       = -19863.5789   QQ        = 0.0000        Bond      = 0.0000      
BondAngle = 0.0000        Torsion   = 0.0000        Tether    = 0.0000      

MeanSquaredDisplacement
Species1
Atom 1: 807.381 
--------------------------------------------------------------------------------

Step 499800	 Instantaneous Values
System
Temperature(K) = 244.2548    
Pressure(kbar) = 258.3389    
ConservedQty   = -1080.7279  
ENERGY 
Total     = -948.5691     Kinetic   = 1556.6538     Potential = -2505.2229  
VDW       = -2505.2229    QQ        = 0.0000        Bond      = 0.0000      
BondAngle = 0.0000        Torsion   = 0.0000        Tether    = 0.0000      
VIRIAL 
Total     = -21105.6499   Constraint= 0.0000      
VDW       = -21105.6499   QQ        = 0.0000        Bond      = 0.0000      
BondAngle = 0.0000        Torsion   = 0.0000        Tether    = 0.0000      

MeanSquaredDisplacement
Species1
Atom 1: 807.296 
--------------------------------------------------------------------------------

Step 499900	 Instantaneous Values
System
Temperature(K) = 235.5070    
Pressure(kbar) = 250.8804    
ConservedQty   = -1080.7735  
ENERGY 
Total     = -1064.0712    Kinetic   = 1500.9035     Potential = -2564.9746  
VDW       = -2564.9746    QQ        = 0.0000        Bond      = 0.0000      
BondAngle = 0.0000        Torsion   = 0.0000        Tether    = 0.0000      
VIRIAL 
Total     = -20517.9197   Constraint= 0.0000      
VDW       = -20517.9197   QQ        = 0.0000        Bond      = 0.0000      
BondAngle = 0.0000        Torsion   = 0.0000        Tether    = 0.0000      

MeanSquaredDisplacement
Species1
Atom 1: 806.728 
--------------------------------------------------------------------------------

Step 500000	 Instantaneous Values
System
Temperature(K) = 237.6552    
Pressure(kbar) = 250.3953    
ConservedQty   = -1081.7992  
ENERGY 
Total     = -1053.3487    Kinetic   = 1514.5936     Potential = -2567.9423  
VDW       = -2567.9423    QQ        = 0.0000        Bond      = 0.0000      
BondAngle = 0.0000        Torsion   = 0.0000        Tether    = 0.0000      
VIRIAL 
Total     = -20445.0644   Constraint= 0.0000      
VDW       = -20445.0644   QQ        = 0.0000        Bond      = 0.0000      
BondAngle = 0.0000        Torsion   = 0.0000        Tether    = 0.0000      

MeanSquaredDisplacement
Species1
Atom 1: 807.654 
--------------------------------------------------------------------------------

Step 500000	Averages
System
CELL
   A          B          C          Alpha      Beta       Gamma   
    8.0000     8.0000     8.0000    90.0000    90.0000    90.0000
Lattice vectors
   8.0000000000e+00    0.0000000000e+00    0.0000000000e+00
   1.2495983202e-40    8.0000000000e+00    0.0000000000e+00
   1.2495983202e-40    1.2495983202e-40    8.0000000000e+00
Cell Volume: 512   
Cell Type: Cubic    PBCType: CUBIC

Temperature(K) = 240.5851    
Pressure(kbar) = 249.5994    
ConservedQty   = -1078.4820  
ENERGY 
Total     = -1042.0625    Kinetic   = 1533.2661     Potential = -2575.3287  
VDW       = -2575.3287    QQ        = 0.0000        Bond      = 0.0000      
BondAngle = 0.0000        Torsion   = 0.0000        Tether    = 0.0000      
VIRIAL 
Total     = -20333.1070   Constraint= 0.0000      
VDW       = -20333.1070   QQ        = 0.0000        Bond      = 0.0000      
BondAngle = 0.0000        Torsion   = 0.0000        Tether    = 0.0000      

--------------------------------------------------------------------------------

--------------------------------------------------------------------------------

Step 500000	Averages
System
CELL
   A          B          C          Alpha      Beta       Gamma   
    8.0000     8.0000     8.0000    90.0000    90.0000    90.0000
Lattice vectors
   8.0000000000e+00    0.0000000000e+00    0.0000000000e+00
   1.2495983202e-40    8.0000000000e+00    0.0000000000e+00
   1.2495983202e-40    1.2495983202e-40    8.0000000000e+00
Cell Volume: 512   
Cell Type: Cubic    PBCType: CUBIC

Temperature(K) = 240.5851    
Pressure(kbar) = 249.5994    
ConservedQty   = -1078.4820  
ENERGY 
Total     = -1042.0625    Kinetic   = 1533.2661     Potential = -2575.3287  
VDW       = -2575.3287    QQ        = 0.0000        Bond      = 0.0000      
BondAngle = 0.0000        Torsion   = 0.0000        Tether    = 0.0000      
VIRIAL 
Total     = -20333.1070   Constraint= 0.0000      
VDW       = -20333.1070   QQ        = 0.0000        Bond      = 0.0000      
BondAngle = 0.0000        Torsion   = 0.0000        Tether    = 0.0000      

--------------------------------------------------------------------------------

