LJ
CONTROL PARAMETERS
 Mode:                Molecular Dynamics
 Number Of Steps:     60000
 Equilibration Steps: 10000
 Timestep:            0.0005 ps
 ConstraintTolerance: 1.000e-08
 Ensemble:            NVT    tau(T): 0.02000 Temperature: 240.5 K 
 Temperature scaling: Every 10 steps during equilibration period
 Forcefield:          VDW
 Cutoff : 2.500 Angstrom DCutoff: 0.3000 Angstrom
 LongRangeCorrection: Enabled

 PBC:   CUBIC, Shift particles

 FGDistribution:      Enabled, Active Species: 0    DeltaX = 1.200
 Statistics:          Enabled, Accumulation Interval: 100
 PeriodicOutput Interval:       100
 AveragesOutputInterval:        1000
 Configuration Save Start Step: 1
 Configuration Save Interval:   100000
 Configuration Save Data Level: Coordinates only
 Configuration Input DataLevel: Coordinates only
 IsPDBOutput:   true


--------------------------------------------------------------------------------

Energy units:kj/mol

MOLECULAR ENSEMBLE  
LJ SYSTEM
TotalMass        = 512.000000
CentreOfMass     = -0.002391 0.003500 -0.012219
DegreesOfFreedom = 1536

LJ
number of molecules 512
Atoms 1
 nr atom type res  resnr ffid mass   charge freeze
  1   LJ   LJ  MOL    0   0   1.00   0.0000 false

charge: 0
mass: 1
degrees of freedom: 3

InteractionWeightVDW
0 

InteractionWeightQQ
0 

Atom Connectivity
1 

MC displacement parameters
MaximumTranslation: 0.01 Ang   MaximumRotation: 5 deg

TotalMass        = 512
CentreOfMass     = -0.00239063 0.0035 -0.0122188
DegreesOfFreedom = 1536

NumberOfMolecules  512



--------------------------------------------------------------------------------

Forcefield NON_BONDED PARAMETERS

Cutoff:2.5  DCutoff:0.3
TabulationSize = 2750
vdw 1
  LJ   LJ lj          1        1

--------------------------------------------------------------------------------

CELL
   A          B          C          Alpha      Beta       Gamma   
   13.6800    13.6800    13.6800    90.0000    90.0000    90.0000
Lattice vectors
   1.3680000000e+01    0.0000000000e+00    0.0000000000e+00
   0.0000000000e+00    1.3680000000e+01    0.0000000000e+00
   0.0000000000e+00    0.0000000000e+00    1.3680000000e+01
Cell Volume: 2560.11   
Cell Type: Cubic    PBCType: CUBIC

--------------------------------------------------------------------------------

THERMOSTAT
ExternalTemperature: 240.5 K
Temperature:         0 K
DegreesOfFreedom:    1533
Tau:  0.02 ps
Chi:      0
Chi_bhDT: 0
Chi_fhDT: 0
ConservedIntegral:  0

--------------------------------------------------------------------------------

BAROSTAT
ExtPressure:  599 kbar
Tau(P):       1 ps
Pressure:     0 kbar
Virial:       0 kJ/mol
StressTensor: false


--------------------------------------------------------------------------------

Step 100	 Instantaneous Values
System
Temperature(K) = 240.5000    
Pressure(kbar) = -3.1407     
ConservedQty   = -225.4006   
ENERGY 
Total     = -241.3656     Kinetic   = 1532.7240     Potential = -1774.0896  
VDW       = -1774.0896    QQ        = 0.0000        Bond      = 0.0000      
BondAngle = 0.0000        Torsion   = 0.0000        Tether    = 0.0000      
VIRIAL 
Total     = 4537.6891     Constraint= 0.0000      
VDW       = 4537.6891     QQ        = 0.0000        Bond      = 0.0000      
BondAngle = 0.0000        Torsion   = 0.0000        Tether    = 0.0000      

--------------------------------------------------------------------------------

Step 200	 Instantaneous Values
System
Temperature(K) = 240.5000    
Pressure(kbar) = 1.0035      
ConservedQty   = 408.5273    
ENERGY 
Total     = 405.9895      Kinetic   = 1532.7240     Potential = -1126.7345  
VDW       = -1126.7345    QQ        = 0.0000        Bond      = 0.0000      
BondAngle = 0.0000        Torsion   = 0.0000        Tether    = 0.0000      
VIRIAL 
Total     = 2595.0601     Constraint= 0.0000      
VDW       = 2595.0601     QQ        = 0.0000        Bond      = 0.0000      
BondAngle = 0.0000        Torsion   = 0.0000        Tether    = 0.0000      

--------------------------------------------------------------------------------

Step 300	 Instantaneous Values
System
Temperature(K) = 240.5000    
Pressure(kbar) = 3.7225      
ConservedQty   = 517.9471    
ENERGY 
Total     = 518.1432      Kinetic   = 1532.7240     Potential = -1014.5808  
VDW       = -1014.5808    QQ        = 0.0000        Bond      = 0.0000      
BondAngle = 0.0000        Torsion   = 0.0000        Tether    = 0.0000      
VIRIAL 
Total     = 1320.4641     Constraint= 0.0000      
VDW       = 1320.4641     QQ        = 0.0000        Bond      = 0.0000      
BondAngle = 0.0000        Torsion   = 0.0000        Tether    = 0.0000      

--------------------------------------------------------------------------------

Step 400	 Instantaneous Values
System
Temperature(K) = 240.5000    
Pressure(kbar) = 4.2806      
ConservedQty   = 537.0171    
ENERGY 
Total     = 536.7096      Kinetic   = 1532.7240     Potential = -996.0144   
VDW       = -996.0144     QQ        = 0.0000        Bond      = 0.0000      
BondAngle = 0.0000        Torsion   = 0.0000        Tether    = 0.0000      
VIRIAL 
Total     = 1058.8590     Constraint= 0.0000      
VDW       = 1058.8590     QQ        = 0.0000        Bond      = 0.0000      
BondAngle = 0.0000        Torsion   = 0.0000        Tether    = 0.0000      

--------------------------------------------------------------------------------

Step 500	 Instantaneous Values
System
Temperature(K) = 240.5000    
Pressure(kbar) = 4.4550      
ConservedQty   = 593.8485    
ENERGY 
Total     = 595.0391      Kinetic   = 1532.7240     Potential = -937.6849   
VDW       = -937.6849     QQ        = 0.0000        Bond      = 0.0000      
BondAngle = 0.0000        Torsion   = 0.0000        Tether    = 0.0000      
VIRIAL 
Total     = 977.0985      Constraint= 0.0000      
VDW       = 977.0985      QQ        = 0.0000        Bond      = 0.0000      
BondAngle = 0.0000        Torsion   = 0.0000        Tether    = 0.0000      

--------------------------------------------------------------------------------

Step 600	 Instantaneous Values
System
Temperature(K) = 240.5000    
Pressure(kbar) = 5.4579      
ConservedQty   = 643.0464    
ENERGY 
Total     = 645.6193      Kinetic   = 1532.7240     Potential = -887.1047   
VDW       = -887.1047     QQ        = 0.0000        Bond      = 0.0000      
BondAngle = 0.0000        Torsion   = 0.0000        Tether    = 0.0000      
VIRIAL 
Total     = 506.9870      Constraint= 0.0000      
VDW       = 506.9870      QQ        = 0.0000        Bond      = 0.0000      
BondAngle = 0.0000        Torsion   = 0.0000        Tether    = 0.0000      

--------------------------------------------------------------------------------

Step 700	 Instantaneous Values
System
Temperature(K) = 240.5000    
Pressure(kbar) = 4.8371      
ConservedQty   = 640.2908    
ENERGY 
Total     = 642.8469      Kinetic   = 1532.7240     Potential = -889.8771   
VDW       = -889.8771     QQ        = 0.0000        Bond      = 0.0000      
BondAngle = 0.0000        Torsion   = 0.0000        Tether    = 0.0000      
VIRIAL 
Total     = 797.9778      Constraint= 0.0000      
VDW       = 797.9778      QQ        = 0.0000        Bond      = 0.0000      
BondAngle = 0.0000        Torsion   = 0.0000        Tether    = 0.0000      

--------------------------------------------------------------------------------

Step 800	 Instantaneous Values
System
Temperature(K) = 240.5000    
Pressure(kbar) = 4.5848      
ConservedQty   = 708.1893    
ENERGY 
Total     = 712.4160      Kinetic   = 1532.7240     Potential = -820.3081   
VDW       = -820.3081     QQ        = 0.0000        Bond      = 0.0000      
BondAngle = 0.0000        Torsion   = 0.0000        Tether    = 0.0000      
VIRIAL 
Total     = 916.2497      Constraint= 0.0000      
VDW       = 916.2497      QQ        = 0.0000        Bond      = 0.0000      
BondAngle = 0.0000        Torsion   = 0.0000        Tether    = 0.0000      

--------------------------------------------------------------------------------

Step 900	 Instantaneous Values
System
Temperature(K) = 240.5000    
Pressure(kbar) = 4.9338      
ConservedQty   = 767.9028    
ENERGY 
Total     = 773.4380      Kinetic   = 1532.7240     Potential = -759.2861   
VDW       = -759.2861     QQ        = 0.0000        Bond      = 0.0000      
BondAngle = 0.0000        Torsion   = 0.0000        Tether    = 0.0000      
VIRIAL 
Total     = 752.6612      Constraint= 0.0000      
VDW       = 752.6612      QQ        = 0.0000        Bond      = 0.0000      
BondAngle = 0.0000        Torsion   = 0.0000        Tether    = 0.0000      

--------------------------------------------------------------------------------

Step 1000	 Instantaneous Values
System
Temperature(K) = 240.5000    
Pressure(kbar) = 4.6816      
ConservedQty   = 807.2089    
ENERGY 
Total     = 812.4282      Kinetic   = 1532.7240     Potential = -720.2958   
VDW       = -720.2958     QQ        = 0.0000        Bond      = 0.0000      
BondAngle = 0.0000        Torsion   = 0.0000        Tether    = 0.0000      
VIRIAL 
Total     = 870.8908      Constraint= 0.0000      
VDW       = 870.8908      QQ        = 0.0000        Bond      = 0.0000      
BondAngle = 0.0000        Torsion   = 0.0000        Tether    = 0.0000      

--------------------------------------------------------------------------------

Step 1100	 Instantaneous Values
System
Temperature(K) = 240.5000    
Pressure(kbar) = 5.1177      
ConservedQty   = 827.9720    
ENERGY 
Total     = 833.9869      Kinetic   = 1532.7240     Potential = -698.7371   
VDW       = -698.7371     QQ        = 0.0000        Bond      = 0.0000      
BondAngle = 0.0000        Torsion   = 0.0000        Tether    = 0.0000      
VIRIAL 
Total     = 666.4763      Constraint= 0.0000      
VDW       = 666.4763      QQ        = 0.0000        Bond      = 0.0000      
BondAngle = 0.0000        Torsion   = 0.0000        Tether    = 0.0000      

--------------------------------------------------------------------------------

Step 1200	 Instantaneous Values
System
Temperature(K) = 240.5000    
Pressure(kbar) = 5.2429      
ConservedQty   = 851.4340    
ENERGY 
Total     = 858.0934      Kinetic   = 1532.7240     Potential = -674.6307   
VDW       = -674.6307     QQ        = 0.0000        Bond      = 0.0000      
BondAngle = 0.0000        Torsion   = 0.0000        Tether    = 0.0000      
VIRIAL 
Total     = 607.7898      Constraint= 0.0000      
VDW       = 607.7898      QQ        = 0.0000        Bond      = 0.0000      
BondAngle = 0.0000        Torsion   = 0.0000        Tether    = 0.0000      

--------------------------------------------------------------------------------

Step 1300	 Instantaneous Values
System
Temperature(K) = 240.5000    
Pressure(kbar) = 5.9065      
ConservedQty   = 870.7734    
ENERGY 
Total     = 878.9524      Kinetic   = 1532.7240     Potential = -653.7716   
VDW       = -653.7716     QQ        = 0.0000        Bond      = 0.0000      
BondAngle = 0.0000        Torsion   = 0.0000        Tether    = 0.0000      
VIRIAL 
Total     = 296.6741      Constraint= 0.0000      
VDW       = 296.6741      QQ        = 0.0000        Bond      = 0.0000      
BondAngle = 0.0000        Torsion   = 0.0000        Tether    = 0.0000      

--------------------------------------------------------------------------------

Step 1400	 Instantaneous Values
System
Temperature(K) = 240.5000    
Pressure(kbar) = 6.1203      
ConservedQty   = 867.3240    
ENERGY 
Total     = 875.9012      Kinetic   = 1532.7240     Potential = -656.8228   
VDW       = -656.8228     QQ        = 0.0000        Bond      = 0.0000      
BondAngle = 0.0000        Torsion   = 0.0000        Tether    = 0.0000      
VIRIAL 
Total     = 196.4722      Constraint= 0.0000      
VDW       = 196.4722      QQ        = 0.0000        Bond      = 0.0000      
BondAngle = 0.0000        Torsion   = 0.0000        Tether    = 0.0000      

--------------------------------------------------------------------------------

Step 1500	 Instantaneous Values
System
Temperature(K) = 240.5000    
Pressure(kbar) = 5.1406      
ConservedQty   = 860.3187    
ENERGY 
Total     = 868.4718      Kinetic   = 1532.7240     Potential = -664.2522   
VDW       = -664.2522     QQ        = 0.0000        Bond      = 0.0000      
BondAngle = 0.0000        Torsion   = 0.0000        Tether    = 0.0000      
VIRIAL 
Total     = 655.7302      Constraint= 0.0000      
VDW       = 655.7302      QQ        = 0.0000        Bond      = 0.0000      
BondAngle = 0.0000        Torsion   = 0.0000        Tether    = 0.0000      

--------------------------------------------------------------------------------

Step 1600	 Instantaneous Values
System
Temperature(K) = 240.5000    
Pressure(kbar) = 5.1862      
ConservedQty   = 854.5751    
ENERGY 
Total     = 861.9428      Kinetic   = 1532.7240     Potential = -670.7812   
VDW       = -670.7812     QQ        = 0.0000        Bond      = 0.0000      
BondAngle = 0.0000        Torsion   = 0.0000        Tether    = 0.0000      
VIRIAL 
Total     = 634.3542      Constraint= 0.0000      
VDW       = 634.3542      QQ        = 0.0000        Bond      = 0.0000      
BondAngle = 0.0000        Torsion   = 0.0000        Tether    = 0.0000      

--------------------------------------------------------------------------------

Step 1700	 Instantaneous Values
System
Temperature(K) = 240.5000    
Pressure(kbar) = 4.1312      
ConservedQty   = 843.1367    
ENERGY 
Total     = 850.1701      Kinetic   = 1532.7240     Potential = -682.5539   
VDW       = -682.5539     QQ        = 0.0000        Bond      = 0.0000      
BondAngle = 0.0000        Torsion   = 0.0000        Tether    = 0.0000      
VIRIAL 
Total     = 1128.8814     Constraint= 0.0000      
VDW       = 1128.8814     QQ        = 0.0000        Bond      = 0.0000      
BondAngle = 0.0000        Torsion   = 0.0000        Tether    = 0.0000      

--------------------------------------------------------------------------------

Step 1800	 Instantaneous Values
System
Temperature(K) = 240.5000    
Pressure(kbar) = 5.3592      
ConservedQty   = 866.0540    
ENERGY 
Total     = 873.9136      Kinetic   = 1532.7240     Potential = -658.8105   
VDW       = -658.8105     QQ        = 0.0000        Bond      = 0.0000      
BondAngle = 0.0000        Torsion   = 0.0000        Tether    = 0.0000      
VIRIAL 
Total     = 553.2456      Constraint= 0.0000      
VDW       = 553.2456      QQ        = 0.0000        Bond      = 0.0000      
BondAngle = 0.0000        Torsion   = 0.0000        Tether    = 0.0000      

--------------------------------------------------------------------------------

Step 1900	 Instantaneous Values
System
Temperature(K) = 240.5000    
Pressure(kbar) = 5.5071      
ConservedQty   = 845.0565    
ENERGY 
Total     = 852.7581      Kinetic   = 1532.7240     Potential = -679.9659   
VDW       = -679.9659     QQ        = 0.0000        Bond      = 0.0000      
BondAngle = 0.0000        Torsion   = 0.0000        Tether    = 0.0000      
VIRIAL 
Total     = 483.8989      Constraint= 0.0000      
VDW       = 483.8989      QQ        = 0.0000        Bond      = 0.0000      
BondAngle = 0.0000        Torsion   = 0.0000        Tether    = 0.0000      

--------------------------------------------------------------------------------

Step 2000	 Instantaneous Values
System
Temperature(K) = 240.5000    
Pressure(kbar) = 4.2511      
ConservedQty   = 815.2272    
ENERGY 
Total     = 821.8851      Kinetic   = 1532.7240     Potential = -710.8390   
VDW       = -710.8390     QQ        = 0.0000        Bond      = 0.0000      
BondAngle = 0.0000        Torsion   = 0.0000        Tether    = 0.0000      
VIRIAL 
Total     = 1072.7035     Constraint= 0.0000      
VDW       = 1072.7035     QQ        = 0.0000        Bond      = 0.0000      
BondAngle = 0.0000        Torsion   = 0.0000        Tether    = 0.0000      

--------------------------------------------------------------------------------

Step 2100	 Instantaneous Values
System
Temperature(K) = 240.5000    
Pressure(kbar) = 4.0065      
ConservedQty   = 843.8313    
ENERGY 
Total     = 850.8831      Kinetic   = 1532.7240     Potential = -681.8409   
VDW       = -681.8409     QQ        = 0.0000        Bond      = 0.0000      
BondAngle = 0.0000        Torsion   = 0.0000        Tether    = 0.0000      
VIRIAL 
Total     = 1187.3280     Constraint= 0.0000      
VDW       = 1187.3280     QQ        = 0.0000        Bond      = 0.0000      
BondAngle = 0.0000        Torsion   = 0.0000        Tether    = 0.0000      

--------------------------------------------------------------------------------

Step 2200	 Instantaneous Values
System
Temperature(K) = 240.5000    
Pressure(kbar) = 5.2876      
ConservedQty   = 854.2989    
ENERGY 
Total     = 861.7569      Kinetic   = 1532.7240     Potential = -670.9671   
VDW       = -670.9671     QQ        = 0.0000        Bond      = 0.0000      
BondAngle = 0.0000        Torsion   = 0.0000        Tether    = 0.0000      
VIRIAL 
Total     = 586.8060      Constraint= 0.0000      
VDW       = 586.8060      QQ        = 0.0000        Bond      = 0.0000      
BondAngle = 0.0000        Torsion   = 0.0000        Tether    = 0.0000      

--------------------------------------------------------------------------------

Step 2300	 Instantaneous Values
System
Temperature(K) = 240.5000    
Pressure(kbar) = 4.6893      
ConservedQty   = 827.6891    
ENERGY 
Total     = 834.3105      Kinetic   = 1532.7240     Potential = -698.4135   
VDW       = -698.4135     QQ        = 0.0000        Bond      = 0.0000      
BondAngle = 0.0000        Torsion   = 0.0000        Tether    = 0.0000      
VIRIAL 
Total     = 867.2933      Constraint= 0.0000      
VDW       = 867.2933      QQ        = 0.0000        Bond      = 0.0000      
BondAngle = 0.0000        Torsion   = 0.0000        Tether    = 0.0000      

--------------------------------------------------------------------------------

Step 2400	 Instantaneous Values
System
Temperature(K) = 240.5000    
Pressure(kbar) = 5.7188      
ConservedQty   = 824.5974    
ENERGY 
Total     = 831.8173      Kinetic   = 1532.7240     Potential = -700.9067   
VDW       = -700.9067     QQ        = 0.0000        Bond      = 0.0000      
BondAngle = 0.0000        Torsion   = 0.0000        Tether    = 0.0000      
VIRIAL 
Total     = 384.6645      Constraint= 0.0000      
VDW       = 384.6645      QQ        = 0.0000        Bond      = 0.0000      
BondAngle = 0.0000        Torsion   = 0.0000        Tether    = 0.0000      

--------------------------------------------------------------------------------

Step 2500	 Instantaneous Values
System
Temperature(K) = 240.5000    
Pressure(kbar) = 6.7020      
ConservedQty   = 864.4842    
ENERGY 
Total     = 872.1041      Kinetic   = 1532.7240     Potential = -660.6199   
VDW       = -660.6199     QQ        = 0.0000        Bond      = 0.0000      
BondAngle = 0.0000        Torsion   = 0.0000        Tether    = 0.0000      
VIRIAL 
Total     = -76.2014      Constraint= 0.0000      
VDW       = -76.2014      QQ        = 0.0000        Bond      = 0.0000      
BondAngle = 0.0000        Torsion   = 0.0000        Tether    = 0.0000      

--------------------------------------------------------------------------------

Step 2600	 Instantaneous Values
System
Temperature(K) = 240.5000    
Pressure(kbar) = 5.3654      
ConservedQty   = 839.4394    
ENERGY 
Total     = 846.2974      Kinetic   = 1532.7240     Potential = -686.4266   
VDW       = -686.4266     QQ        = 0.0000        Bond      = 0.0000      
BondAngle = 0.0000        Torsion   = 0.0000        Tether    = 0.0000      
VIRIAL 
Total     = 550.3549      Constraint= 0.0000      
VDW       = 550.3549      QQ        = 0.0000        Bond      = 0.0000      
BondAngle = 0.0000        Torsion   = 0.0000        Tether    = 0.0000      

--------------------------------------------------------------------------------

Step 2700	 Instantaneous Values
System
Temperature(K) = 240.5000    
Pressure(kbar) = 6.3279      
ConservedQty   = 855.0461    
ENERGY 
Total     = 861.7760      Kinetic   = 1532.7240     Potential = -670.9480   
VDW       = -670.9480     QQ        = 0.0000        Bond      = 0.0000      
BondAngle = 0.0000        Torsion   = 0.0000        Tether    = 0.0000      
VIRIAL 
Total     = 99.1712       Constraint= 0.0000      
VDW       = 99.1712       QQ        = 0.0000        Bond      = 0.0000      
BondAngle = 0.0000        Torsion   = 0.0000        Tether    = 0.0000      

--------------------------------------------------------------------------------

Step 2800	 Instantaneous Values
System
Temperature(K) = 240.5000    
Pressure(kbar) = 6.7871      
ConservedQty   = 884.2622    
ENERGY 
Total     = 890.2045      Kinetic   = 1532.7240     Potential = -642.5195   
VDW       = -642.5195     QQ        = 0.0000        Bond      = 0.0000      
BondAngle = 0.0000        Torsion   = 0.0000        Tether    = 0.0000      
VIRIAL 
Total     = -116.1163     Constraint= 0.0000      
VDW       = -116.1163     QQ        = 0.0000        Bond      = 0.0000      
BondAngle = 0.0000        Torsion   = 0.0000        Tether    = 0.0000      

--------------------------------------------------------------------------------

Step 2900	 Instantaneous Values
System
Temperature(K) = 240.5000    
Pressure(kbar) = 4.7776      
ConservedQty   = 845.8434    
ENERGY 
Total     = 850.7583      Kinetic   = 1532.7240     Potential = -681.9657   
VDW       = -681.9657     QQ        = 0.0000        Bond      = 0.0000      
BondAngle = 0.0000        Torsion   = 0.0000        Tether    = 0.0000      
VIRIAL 
Total     = 825.8675      Constraint= 0.0000      
VDW       = 825.8675      QQ        = 0.0000        Bond      = 0.0000      
BondAngle = 0.0000        Torsion   = 0.0000        Tether    = 0.0000      

--------------------------------------------------------------------------------

Step 3000	 Instantaneous Values
System
Temperature(K) = 240.5000    
Pressure(kbar) = 4.3014      
ConservedQty   = 828.7839    
ENERGY 
Total     = 834.2455      Kinetic   = 1532.7240     Potential = -698.4785   
VDW       = -698.4785     QQ        = 0.0000        Bond      = 0.0000      
BondAngle = 0.0000        Torsion   = 0.0000        Tether    = 0.0000      
VIRIAL 
Total     = 1049.1106     Constraint= 0.0000      
VDW       = 1049.1106     QQ        = 0.0000        Bond      = 0.0000      
BondAngle = 0.0000        Torsion   = 0.0000        Tether    = 0.0000      

--------------------------------------------------------------------------------

Step 3100	 Instantaneous Values
System
Temperature(K) = 240.5000    
Pressure(kbar) = 4.8033      
ConservedQty   = 836.6846    
ENERGY 
Total     = 841.5808      Kinetic   = 1532.7240     Potential = -691.1432   
VDW       = -691.1432     QQ        = 0.0000        Bond      = 0.0000      
BondAngle = 0.0000        Torsion   = 0.0000        Tether    = 0.0000      
VIRIAL 
Total     = 813.8211      Constraint= 0.0000      
VDW       = 813.8211      QQ        = 0.0000        Bond      = 0.0000      
BondAngle = 0.0000        Torsion   = 0.0000        Tether    = 0.0000      

--------------------------------------------------------------------------------

Step 3200	 Instantaneous Values
System
Temperature(K) = 240.5000    
Pressure(kbar) = 6.2266      
ConservedQty   = 875.6988    
ENERGY 
Total     = 880.2461      Kinetic   = 1532.7240     Potential = -652.4779   
VDW       = -652.4779     QQ        = 0.0000        Bond      = 0.0000      
BondAngle = 0.0000        Torsion   = 0.0000        Tether    = 0.0000      
VIRIAL 
Total     = 146.6315      Constraint= 0.0000      
VDW       = 146.6315      QQ        = 0.0000        Bond      = 0.0000      
BondAngle = 0.0000        Torsion   = 0.0000        Tether    = 0.0000      

--------------------------------------------------------------------------------

Step 3300	 Instantaneous Values
System
Temperature(K) = 240.5000    
Pressure(kbar) = 5.8819      
ConservedQty   = 870.3406    
ENERGY 
Total     = 874.4750      Kinetic   = 1532.7240     Potential = -658.2490   
VDW       = -658.2490     QQ        = 0.0000        Bond      = 0.0000      
BondAngle = 0.0000        Torsion   = 0.0000        Tether    = 0.0000      
VIRIAL 
Total     = 308.2133      Constraint= 0.0000      
VDW       = 308.2133      QQ        = 0.0000        Bond      = 0.0000      
BondAngle = 0.0000        Torsion   = 0.0000        Tether    = 0.0000      

--------------------------------------------------------------------------------

Step 3400	 Instantaneous Values
System
Temperature(K) = 240.5000    
Pressure(kbar) = 4.5029      
ConservedQty   = 852.2048    
ENERGY 
Total     = 855.5028      Kinetic   = 1532.7240     Potential = -677.2212   
VDW       = -677.2212     QQ        = 0.0000        Bond      = 0.0000      
BondAngle = 0.0000        Torsion   = 0.0000        Tether    = 0.0000      
VIRIAL 
Total     = 954.6350      Constraint= 0.0000      
VDW       = 954.6350      QQ        = 0.0000        Bond      = 0.0000      
BondAngle = 0.0000        Torsion   = 0.0000        Tether    = 0.0000      

--------------------------------------------------------------------------------

Step 3500	 Instantaneous Values
System
Temperature(K) = 240.5000    
Pressure(kbar) = 4.9825      
ConservedQty   = 862.1851    
ENERGY 
Total     = 866.0584      Kinetic   = 1532.7240     Potential = -666.6656   
VDW       = -666.6656     QQ        = 0.0000        Bond      = 0.0000      
BondAngle = 0.0000        Torsion   = 0.0000        Tether    = 0.0000      
VIRIAL 
Total     = 729.8319      Constraint= 0.0000      
VDW       = 729.8319      QQ        = 0.0000        Bond      = 0.0000      
BondAngle = 0.0000        Torsion   = 0.0000        Tether    = 0.0000      

--------------------------------------------------------------------------------

Step 3600	 Instantaneous Values
System
Temperature(K) = 240.5000    
Pressure(kbar) = 4.7866      
ConservedQty   = 825.4123    
ENERGY 
Total     = 827.6616      Kinetic   = 1532.7240     Potential = -705.0624   
VDW       = -705.0624     QQ        = 0.0000        Bond      = 0.0000      
BondAngle = 0.0000        Torsion   = 0.0000        Tether    = 0.0000      
VIRIAL 
Total     = 821.6749      Constraint= 0.0000      
VDW       = 821.6749      QQ        = 0.0000        Bond      = 0.0000      
BondAngle = 0.0000        Torsion   = 0.0000        Tether    = 0.0000      

--------------------------------------------------------------------------------

Step 3700	 Instantaneous Values
System
Temperature(K) = 240.5000    
Pressure(kbar) = 5.4400      
ConservedQty   = 855.8887    
ENERGY 
Total     = 860.0648      Kinetic   = 1532.7240     Potential = -672.6592   
VDW       = -672.6592     QQ        = 0.0000        Bond      = 0.0000      
BondAngle = 0.0000        Torsion   = 0.0000        Tether    = 0.0000      
VIRIAL 
Total     = 515.3785      Constraint= 0.0000      
VDW       = 515.3785      QQ        = 0.0000        Bond      = 0.0000      
BondAngle = 0.0000        Torsion   = 0.0000        Tether    = 0.0000      

--------------------------------------------------------------------------------

Step 3800	 Instantaneous Values
System
Temperature(K) = 240.5000    
Pressure(kbar) = 5.1696      
ConservedQty   = 882.9879    
ENERGY 
Total     = 886.4624      Kinetic   = 1532.7240     Potential = -646.2617   
VDW       = -646.2617     QQ        = 0.0000        Bond      = 0.0000      
BondAngle = 0.0000        Torsion   = 0.0000        Tether    = 0.0000      
VIRIAL 
Total     = 642.1301      Constraint= 0.0000      
VDW       = 642.1301      QQ        = 0.0000        Bond      = 0.0000      
BondAngle = 0.0000        Torsion   = 0.0000        Tether    = 0.0000      

--------------------------------------------------------------------------------

Step 3900	 Instantaneous Values
System
Temperature(K) = 240.5000    
Pressure(kbar) = 5.1617      
ConservedQty   = 849.0790    
ENERGY 
Total     = 851.6457      Kinetic   = 1532.7240     Potential = -681.0783   
VDW       = -681.0783     QQ        = 0.0000        Bond      = 0.0000      
BondAngle = 0.0000        Torsion   = 0.0000        Tether    = 0.0000      
VIRIAL 
Total     = 645.8313      Constraint= 0.0000      
VDW       = 645.8313      QQ        = 0.0000        Bond      = 0.0000      
BondAngle = 0.0000        Torsion   = 0.0000        Tether    = 0.0000      

--------------------------------------------------------------------------------

Step 4000	 Instantaneous Values
System
Temperature(K) = 240.5000    
Pressure(kbar) = 5.4000      
ConservedQty   = 864.0983    
ENERGY 
Total     = 867.0943      Kinetic   = 1532.7240     Potential = -665.6297   
VDW       = -665.6297     QQ        = 0.0000        Bond      = 0.0000      
BondAngle = 0.0000        Torsion   = 0.0000        Tether    = 0.0000      
VIRIAL 
Total     = 534.1156      Constraint= 0.0000      
VDW       = 534.1156      QQ        = 0.0000        Bond      = 0.0000      
BondAngle = 0.0000        Torsion   = 0.0000        Tether    = 0.0000      

--------------------------------------------------------------------------------

Step 4100	 Instantaneous Values
System
Temperature(K) = 240.5000    
Pressure(kbar) = 5.7142      
ConservedQty   = 861.8093    
ENERGY 
Total     = 863.9599      Kinetic   = 1532.7240     Potential = -668.7641   
VDW       = -668.7641     QQ        = 0.0000        Bond      = 0.0000      
BondAngle = 0.0000        Torsion   = 0.0000        Tether    = 0.0000      
VIRIAL 
Total     = 386.8433      Constraint= 0.0000      
VDW       = 386.8433      QQ        = 0.0000        Bond      = 0.0000      
BondAngle = 0.0000        Torsion   = 0.0000        Tether    = 0.0000      

--------------------------------------------------------------------------------

Step 4200	 Instantaneous Values
System
Temperature(K) = 240.5000    
Pressure(kbar) = 4.7214      
ConservedQty   = 894.9441    
ENERGY 
Total     = 897.1232      Kinetic   = 1532.7240     Potential = -635.6008   
VDW       = -635.6008     QQ        = 0.0000        Bond      = 0.0000      
BondAngle = 0.0000        Torsion   = 0.0000        Tether    = 0.0000      
VIRIAL 
Total     = 852.2436      Constraint= 0.0000      
VDW       = 852.2436      QQ        = 0.0000        Bond      = 0.0000      
BondAngle = 0.0000        Torsion   = 0.0000        Tether    = 0.0000      

--------------------------------------------------------------------------------

Step 4300	 Instantaneous Values
System
Temperature(K) = 240.5000    
Pressure(kbar) = 5.8232      
ConservedQty   = 853.0907    
ENERGY 
Total     = 854.5899      Kinetic   = 1532.7240     Potential = -678.1341   
VDW       = -678.1341     QQ        = 0.0000        Bond      = 0.0000      
BondAngle = 0.0000        Torsion   = 0.0000        Tether    = 0.0000      
VIRIAL 
Total     = 335.7486      Constraint= 0.0000      
VDW       = 335.7486      QQ        = 0.0000        Bond      = 0.0000      
BondAngle = 0.0000        Torsion   = 0.0000        Tether    = 0.0000      

--------------------------------------------------------------------------------

Step 4400	 Instantaneous Values
System
Temperature(K) = 240.5000    
Pressure(kbar) = 6.1191      
ConservedQty   = 894.5680    
ENERGY 
Total     = 897.4190      Kinetic   = 1532.7240     Potential = -635.3050   
VDW       = -635.3050     QQ        = 0.0000        Bond      = 0.0000      
BondAngle = 0.0000        Torsion   = 0.0000        Tether    = 0.0000      
VIRIAL 
Total     = 197.0562      Constraint= 0.0000      
VDW       = 197.0562      QQ        = 0.0000        Bond      = 0.0000      
BondAngle = 0.0000        Torsion   = 0.0000        Tether    = 0.0000      

--------------------------------------------------------------------------------

Step 4500	 Instantaneous Values
System
Temperature(K) = 240.5000    
Pressure(kbar) = 4.9995      
ConservedQty   = 859.8303    
ENERGY 
Total     = 862.2067      Kinetic   = 1532.7240     Potential = -670.5173   
VDW       = -670.5173     QQ        = 0.0000        Bond      = 0.0000      
BondAngle = 0.0000        Torsion   = 0.0000        Tether    = 0.0000      
VIRIAL 
Total     = 721.8464      Constraint= 0.0000      
VDW       = 721.8464      QQ        = 0.0000        Bond      = 0.0000      
BondAngle = 0.0000        Torsion   = 0.0000        Tether    = 0.0000      

--------------------------------------------------------------------------------

Step 4600	 Instantaneous Values
System
Temperature(K) = 240.5000    
Pressure(kbar) = 4.9456      
ConservedQty   = 849.0989    
ENERGY 
Total     = 852.2863      Kinetic   = 1532.7240     Potential = -680.4377   
VDW       = -680.4377     QQ        = 0.0000        Bond      = 0.0000      
BondAngle = 0.0000        Torsion   = 0.0000        Tether    = 0.0000      
VIRIAL 
Total     = 747.1358      Constraint= 0.0000      
VDW       = 747.1358      QQ        = 0.0000        Bond      = 0.0000      
BondAngle = 0.0000        Torsion   = 0.0000        Tether    = 0.0000      

--------------------------------------------------------------------------------

Step 4700	 Instantaneous Values
System
Temperature(K) = 240.5000    
Pressure(kbar) = 4.5518      
ConservedQty   = 843.1692    
ENERGY 
Total     = 846.9771      Kinetic   = 1532.7240     Potential = -685.7469   
VDW       = -685.7469     QQ        = 0.0000        Bond      = 0.0000      
BondAngle = 0.0000        Torsion   = 0.0000        Tether    = 0.0000      
VIRIAL 
Total     = 931.7313      Constraint= 0.0000      
VDW       = 931.7313      QQ        = 0.0000        Bond      = 0.0000      
BondAngle = 0.0000        Torsion   = 0.0000        Tether    = 0.0000      

--------------------------------------------------------------------------------

Step 4800	 Instantaneous Values
System
Temperature(K) = 240.5000    
Pressure(kbar) = 5.3566      
ConservedQty   = 873.8815    
ENERGY 
Total     = 877.9665      Kinetic   = 1532.7240     Potential = -654.7575   
VDW       = -654.7575     QQ        = 0.0000        Bond      = 0.0000      
BondAngle = 0.0000        Torsion   = 0.0000        Tether    = 0.0000      
VIRIAL 
Total     = 554.4866      Constraint= 0.0000      
VDW       = 554.4866      QQ        = 0.0000        Bond      = 0.0000      
BondAngle = 0.0000        Torsion   = 0.0000        Tether    = 0.0000      

--------------------------------------------------------------------------------

Step 4900	 Instantaneous Values
System
Temperature(K) = 240.5000    
Pressure(kbar) = 4.6994      
ConservedQty   = 850.8956    
ENERGY 
Total     = 854.5239      Kinetic   = 1532.7240     Potential = -678.2002   
VDW       = -678.2002     QQ        = 0.0000        Bond      = 0.0000      
BondAngle = 0.0000        Torsion   = 0.0000        Tether    = 0.0000      
VIRIAL 
Total     = 862.5427      Constraint= 0.0000      
VDW       = 862.5427      QQ        = 0.0000        Bond      = 0.0000      
BondAngle = 0.0000        Torsion   = 0.0000        Tether    = 0.0000      

--------------------------------------------------------------------------------

Step 5000	 Instantaneous Values
System
Temperature(K) = 240.5000    
Pressure(kbar) = 5.9786      
ConservedQty   = 894.2913    
ENERGY 
Total     = 897.9039      Kinetic   = 1532.7240     Potential = -634.8201   
VDW       = -634.8201     QQ        = 0.0000        Bond      = 0.0000      
BondAngle = 0.0000        Torsion   = 0.0000        Tether    = 0.0000      
VIRIAL 
Total     = 262.8864      Constraint= 0.0000      
VDW       = 262.8864      QQ        = 0.0000        Bond      = 0.0000      
BondAngle = 0.0000        Torsion   = 0.0000        Tether    = 0.0000      

--------------------------------------------------------------------------------

Step 5100	 Instantaneous Values
System
Temperature(K) = 240.5000    
Pressure(kbar) = 4.7238      
ConservedQty   = 853.4958    
ENERGY 
Total     = 856.1597      Kinetic   = 1532.7240     Potential = -676.5643   
VDW       = -676.5643     QQ        = 0.0000        Bond      = 0.0000      
BondAngle = 0.0000        Torsion   = 0.0000        Tether    = 0.0000      
VIRIAL 
Total     = 851.1248      Constraint= 0.0000      
VDW       = 851.1248      QQ        = 0.0000        Bond      = 0.0000      
BondAngle = 0.0000        Torsion   = 0.0000        Tether    = 0.0000      

--------------------------------------------------------------------------------

Step 5200	 Instantaneous Values
System
Temperature(K) = 240.5000    
Pressure(kbar) = 6.5549      
ConservedQty   = 869.6399    
ENERGY 
Total     = 872.4801      Kinetic   = 1532.7240     Potential = -660.2439   
VDW       = -660.2439     QQ        = 0.0000        Bond      = 0.0000      
BondAngle = 0.0000        Torsion   = 0.0000        Tether    = 0.0000      
VIRIAL 
Total     = -7.2636       Constraint= 0.0000      
VDW       = -7.2636       QQ        = 0.0000        Bond      = 0.0000      
BondAngle = 0.0000        Torsion   = 0.0000        Tether    = 0.0000      

--------------------------------------------------------------------------------

Step 5300	 Instantaneous Values
System
Temperature(K) = 240.5000    
Pressure(kbar) = 5.8643      
ConservedQty   = 871.1552    
ENERGY 
Total     = 874.5220      Kinetic   = 1532.7240     Potential = -658.2020   
VDW       = -658.2020     QQ        = 0.0000        Bond      = 0.0000      
BondAngle = 0.0000        Torsion   = 0.0000        Tether    = 0.0000      
VIRIAL 
Total     = 316.4934      Constraint= 0.0000      
VDW       = 316.4934      QQ        = 0.0000        Bond      = 0.0000      
BondAngle = 0.0000        Torsion   = 0.0000        Tether    = 0.0000      

--------------------------------------------------------------------------------

Step 5400	 Instantaneous Values
System
Temperature(K) = 240.5000    
Pressure(kbar) = 4.4438      
ConservedQty   = 849.8343    
ENERGY 
Total     = 851.2382      Kinetic   = 1532.7240     Potential = -681.4858   
VDW       = -681.4858     QQ        = 0.0000        Bond      = 0.0000      
BondAngle = 0.0000        Torsion   = 0.0000        Tether    = 0.0000      
VIRIAL 
Total     = 982.3750      Constraint= 0.0000      
VDW       = 982.3750      QQ        = 0.0000        Bond      = 0.0000      
BondAngle = 0.0000        Torsion   = 0.0000        Tether    = 0.0000      

--------------------------------------------------------------------------------

Step 5500	 Instantaneous Values
System
Temperature(K) = 240.5000    
Pressure(kbar) = 6.0333      
ConservedQty   = 882.5865    
ENERGY 
Total     = 885.0640      Kinetic   = 1532.7240     Potential = -647.6600   
VDW       = -647.6600     QQ        = 0.0000        Bond      = 0.0000      
BondAngle = 0.0000        Torsion   = 0.0000        Tether    = 0.0000      
VIRIAL 
Total     = 237.2465      Constraint= 0.0000      
VDW       = 237.2465      QQ        = 0.0000        Bond      = 0.0000      
BondAngle = 0.0000        Torsion   = 0.0000        Tether    = 0.0000      

--------------------------------------------------------------------------------

Step 5600	 Instantaneous Values
System
Temperature(K) = 240.5000    
Pressure(kbar) = 4.9096      
ConservedQty   = 846.1042    
ENERGY 
Total     = 848.1204      Kinetic   = 1532.7240     Potential = -684.6036   
VDW       = -684.6036     QQ        = 0.0000        Bond      = 0.0000      
BondAngle = 0.0000        Torsion   = 0.0000        Tether    = 0.0000      
VIRIAL 
Total     = 763.9922      Constraint= 0.0000      
VDW       = 763.9922      QQ        = 0.0000        Bond      = 0.0000      
BondAngle = 0.0000        Torsion   = 0.0000        Tether    = 0.0000      

--------------------------------------------------------------------------------

Step 5700	 Instantaneous Values
System
Temperature(K) = 240.5000    
Pressure(kbar) = 5.5237      
ConservedQty   = 870.3602    
ENERGY 
Total     = 872.8244      Kinetic   = 1532.7240     Potential = -659.8996   
VDW       = -659.8996     QQ        = 0.0000        Bond      = 0.0000      
BondAngle = 0.0000        Torsion   = 0.0000        Tether    = 0.0000      
VIRIAL 
Total     = 476.1302      Constraint= 0.0000      
VDW       = 476.1302      QQ        = 0.0000        Bond      = 0.0000      
BondAngle = 0.0000        Torsion   = 0.0000        Tether    = 0.0000      

--------------------------------------------------------------------------------

Step 5800	 Instantaneous Values
System
Temperature(K) = 240.5000    
Pressure(kbar) = 5.2777      
ConservedQty   = 848.9282    
ENERGY 
Total     = 852.0571      Kinetic   = 1532.7240     Potential = -680.6669   
VDW       = -680.6669     QQ        = 0.0000        Bond      = 0.0000      
BondAngle = 0.0000        Torsion   = 0.0000        Tether    = 0.0000      
VIRIAL 
Total     = 591.4730      Constraint= 0.0000      
VDW       = 591.4730      QQ        = 0.0000        Bond      = 0.0000      
BondAngle = 0.0000        Torsion   = 0.0000        Tether    = 0.0000      

--------------------------------------------------------------------------------

Step 5900	 Instantaneous Values
System
Temperature(K) = 240.5000    
Pressure(kbar) = 5.6596      
ConservedQty   = 862.6825    
ENERGY 
Total     = 866.3473      Kinetic   = 1532.7240     Potential = -666.3767   
VDW       = -666.3767     QQ        = 0.0000        Bond      = 0.0000      
BondAngle = 0.0000        Torsion   = 0.0000        Tether    = 0.0000      
VIRIAL 
Total     = 412.4531      Constraint= 0.0000      
VDW       = 412.4531      QQ        = 0.0000        Bond      = 0.0000      
BondAngle = 0.0000        Torsion   = 0.0000        Tether    = 0.0000      

--------------------------------------------------------------------------------

Step 6000	 Instantaneous Values
System
Temperature(K) = 240.5000    
Pressure(kbar) = 5.1715      
ConservedQty   = 858.9891    
ENERGY 
Total     = 861.7438      Kinetic   = 1532.7240     Potential = -670.9802   
VDW       = -670.9802     QQ        = 0.0000        Bond      = 0.0000      
BondAngle = 0.0000        Torsion   = 0.0000        Tether    = 0.0000      
VIRIAL 
Total     = 641.2399      Constraint= 0.0000      
VDW       = 641.2399      QQ        = 0.0000        Bond      = 0.0000      
BondAngle = 0.0000        Torsion   = 0.0000        Tether    = 0.0000      

--------------------------------------------------------------------------------

Step 6100	 Instantaneous Values
System
Temperature(K) = 240.5000    
Pressure(kbar) = 5.6866      
ConservedQty   = 835.3187    
ENERGY 
Total     = 837.0244      Kinetic   = 1532.7240     Potential = -695.6997   
VDW       = -695.6997     QQ        = 0.0000        Bond      = 0.0000      
BondAngle = 0.0000        Torsion   = 0.0000        Tether    = 0.0000      
VIRIAL 
Total     = 399.7612      Constraint= 0.0000      
VDW       = 399.7612      QQ        = 0.0000        Bond      = 0.0000      
BondAngle = 0.0000        Torsion   = 0.0000        Tether    = 0.0000      

--------------------------------------------------------------------------------

Step 6200	 Instantaneous Values
System
Temperature(K) = 240.5000    
Pressure(kbar) = 5.3870      
ConservedQty   = 850.9242    
ENERGY 
Total     = 851.3988      Kinetic   = 1532.7240     Potential = -681.3252   
VDW       = -681.3252     QQ        = 0.0000        Bond      = 0.0000      
BondAngle = 0.0000        Torsion   = 0.0000        Tether    = 0.0000      
VIRIAL 
Total     = 540.2236      Constraint= 0.0000      
VDW       = 540.2236      QQ        = 0.0000        Bond      = 0.0000      
BondAngle = 0.0000        Torsion   = 0.0000        Tether    = 0.0000      

--------------------------------------------------------------------------------

Step 6300	 Instantaneous Values
System
Temperature(K) = 240.5000    
Pressure(kbar) = 6.0285      
ConservedQty   = 882.5084    
ENERGY 
Total     = 883.3881      Kinetic   = 1532.7240     Potential = -649.3359   
VDW       = -649.3359     QQ        = 0.0000        Bond      = 0.0000      
BondAngle = 0.0000        Torsion   = 0.0000        Tether    = 0.0000      
VIRIAL 
Total     = 239.5105      Constraint= 0.0000      
VDW       = 239.5105      QQ        = 0.0000        Bond      = 0.0000      
BondAngle = 0.0000        Torsion   = 0.0000        Tether    = 0.0000      

--------------------------------------------------------------------------------

Step 6400	 Instantaneous Values
System
Temperature(K) = 240.5000    
Pressure(kbar) = 6.2883      
ConservedQty   = 893.7534    
ENERGY 
Total     = 894.0973      Kinetic   = 1532.7240     Potential = -638.6267   
VDW       = -638.6267     QQ        = 0.0000        Bond      = 0.0000      
BondAngle = 0.0000        Torsion   = 0.0000        Tether    = 0.0000      
VIRIAL 
Total     = 117.7291      Constraint= 0.0000      
VDW       = 117.7291      QQ        = 0.0000        Bond      = 0.0000      
BondAngle = 0.0000        Torsion   = 0.0000        Tether    = 0.0000      

--------------------------------------------------------------------------------

Step 6500	 Instantaneous Values
System
Temperature(K) = 240.5000    
Pressure(kbar) = 5.7375      
ConservedQty   = 880.6985    
ENERGY 
Total     = 880.9235      Kinetic   = 1532.7240     Potential = -651.8005   
VDW       = -651.8005     QQ        = 0.0000        Bond      = 0.0000      
BondAngle = 0.0000        Torsion   = 0.0000        Tether    = 0.0000      
VIRIAL 
Total     = 375.9251      Constraint= 0.0000      
VDW       = 375.9251      QQ        = 0.0000        Bond      = 0.0000      
BondAngle = 0.0000        Torsion   = 0.0000        Tether    = 0.0000      

--------------------------------------------------------------------------------

Step 6600	 Instantaneous Values
System
Temperature(K) = 240.5000    
Pressure(kbar) = 4.0992      
ConservedQty   = 854.0455    
ENERGY 
Total     = 853.7282      Kinetic   = 1532.7240     Potential = -678.9958   
VDW       = -678.9958     QQ        = 0.0000        Bond      = 0.0000      
BondAngle = 0.0000        Torsion   = 0.0000        Tether    = 0.0000      
VIRIAL 
Total     = 1143.9004     Constraint= 0.0000      
VDW       = 1143.9004     QQ        = 0.0000        Bond      = 0.0000      
BondAngle = 0.0000        Torsion   = 0.0000        Tether    = 0.0000      

--------------------------------------------------------------------------------

Step 6700	 Instantaneous Values
System
Temperature(K) = 240.5000    
Pressure(kbar) = 5.4750      
ConservedQty   = 879.2768    
ENERGY 
Total     = 880.0287      Kinetic   = 1532.7240     Potential = -652.6953   
VDW       = -652.6953     QQ        = 0.0000        Bond      = 0.0000      
BondAngle = 0.0000        Torsion   = 0.0000        Tether    = 0.0000      
VIRIAL 
Total     = 498.9604      Constraint= 0.0000      
VDW       = 498.9604      QQ        = 0.0000        Bond      = 0.0000      
BondAngle = 0.0000        Torsion   = 0.0000        Tether    = 0.0000      

--------------------------------------------------------------------------------

Step 6800	 Instantaneous Values
System
Temperature(K) = 240.5000    
Pressure(kbar) = 4.1858      
ConservedQty   = 859.6169    
ENERGY 
Total     = 860.0040      Kinetic   = 1532.7240     Potential = -672.7200   
VDW       = -672.7200     QQ        = 0.0000        Bond      = 0.0000      
BondAngle = 0.0000        Torsion   = 0.0000        Tether    = 0.0000      
VIRIAL 
Total     = 1103.3060     Constraint= 0.0000      
VDW       = 1103.3060     QQ        = 0.0000        Bond      = 0.0000      
BondAngle = 0.0000        Torsion   = 0.0000        Tether    = 0.0000      

--------------------------------------------------------------------------------

Step 6900	 Instantaneous Values
System
Temperature(K) = 240.5000    
Pressure(kbar) = 5.3694      
ConservedQty   = 873.8127    
ENERGY 
Total     = 873.9919      Kinetic   = 1532.7240     Potential = -658.7322   
VDW       = -658.7322     QQ        = 0.0000        Bond      = 0.0000      
BondAngle = 0.0000        Torsion   = 0.0000        Tether    = 0.0000      
VIRIAL 
Total     = 548.4918      Constraint= 0.0000      
VDW       = 548.4918      QQ        = 0.0000        Bond      = 0.0000      
BondAngle = 0.0000        Torsion   = 0.0000        Tether    = 0.0000      

--------------------------------------------------------------------------------

Step 7000	 Instantaneous Values
System
Temperature(K) = 240.5000    
Pressure(kbar) = 5.7340      
ConservedQty   = 883.2092    
ENERGY 
Total     = 883.4175      Kinetic   = 1532.7240     Potential = -649.3065   
VDW       = -649.3065     QQ        = 0.0000        Bond      = 0.0000      
BondAngle = 0.0000        Torsion   = 0.0000        Tether    = 0.0000      
VIRIAL 
Total     = 377.5358      Constraint= 0.0000      
VDW       = 377.5358      QQ        = 0.0000        Bond      = 0.0000      
BondAngle = 0.0000        Torsion   = 0.0000        Tether    = 0.0000      

--------------------------------------------------------------------------------

Step 7100	 Instantaneous Values
System
Temperature(K) = 240.5000    
Pressure(kbar) = 6.1895      
ConservedQty   = 892.2276    
ENERGY 
Total     = 892.4431      Kinetic   = 1532.7240     Potential = -640.2809   
VDW       = -640.2809     QQ        = 0.0000        Bond      = 0.0000      
BondAngle = 0.0000        Torsion   = 0.0000        Tether    = 0.0000      
VIRIAL 
Total     = 164.0415      Constraint= 0.0000      
VDW       = 164.0415      QQ        = 0.0000        Bond      = 0.0000      
BondAngle = 0.0000        Torsion   = 0.0000        Tether    = 0.0000      

--------------------------------------------------------------------------------

Step 7200	 Instantaneous Values
System
Temperature(K) = 240.5000    
Pressure(kbar) = 5.4910      
ConservedQty   = 892.1033    
ENERGY 
Total     = 892.9546      Kinetic   = 1532.7240     Potential = -639.7694   
VDW       = -639.7694     QQ        = 0.0000        Bond      = 0.0000      
BondAngle = 0.0000        Torsion   = 0.0000        Tether    = 0.0000      
VIRIAL 
Total     = 491.4595      Constraint= 0.0000      
VDW       = 491.4595      QQ        = 0.0000        Bond      = 0.0000      
BondAngle = 0.0000        Torsion   = 0.0000        Tether    = 0.0000      

--------------------------------------------------------------------------------

Step 7300	 Instantaneous Values
System
Temperature(K) = 240.5000    
Pressure(kbar) = 5.7062      
ConservedQty   = 900.1792    
ENERGY 
Total     = 901.2046      Kinetic   = 1532.7240     Potential = -631.5194   
VDW       = -631.5194     QQ        = 0.0000        Bond      = 0.0000      
BondAngle = 0.0000        Torsion   = 0.0000        Tether    = 0.0000      
VIRIAL 
Total     = 390.5879      Constraint= 0.0000      
VDW       = 390.5879      QQ        = 0.0000        Bond      = 0.0000      
BondAngle = 0.0000        Torsion   = 0.0000        Tether    = 0.0000      

--------------------------------------------------------------------------------

Step 7400	 Instantaneous Values
System
Temperature(K) = 240.5000    
Pressure(kbar) = 5.7690      
ConservedQty   = 883.8033    
ENERGY 
Total     = 884.7542      Kinetic   = 1532.7240     Potential = -647.9698   
VDW       = -647.9698     QQ        = 0.0000        Bond      = 0.0000      
BondAngle = 0.0000        Torsion   = 0.0000        Tether    = 0.0000      
VIRIAL 
Total     = 361.1455      Constraint= 0.0000      
VDW       = 361.1455      QQ        = 0.0000        Bond      = 0.0000      
BondAngle = 0.0000        Torsion   = 0.0000        Tether    = 0.0000      

--------------------------------------------------------------------------------

Step 7500	 Instantaneous Values
System
Temperature(K) = 240.5000    
Pressure(kbar) = 4.9430      
ConservedQty   = 842.5605    
ENERGY 
Total     = 843.0308      Kinetic   = 1532.7240     Potential = -689.6932   
VDW       = -689.6932     QQ        = 0.0000        Bond      = 0.0000      
BondAngle = 0.0000        Torsion   = 0.0000        Tether    = 0.0000      
VIRIAL 
Total     = 748.3465      Constraint= 0.0000      
VDW       = 748.3465      QQ        = 0.0000        Bond      = 0.0000      
BondAngle = 0.0000        Torsion   = 0.0000        Tether    = 0.0000      

--------------------------------------------------------------------------------

Step 7600	 Instantaneous Values
System
Temperature(K) = 240.5000    
Pressure(kbar) = 5.3502      
ConservedQty   = 861.2120    
ENERGY 
Total     = 861.7268      Kinetic   = 1532.7240     Potential = -670.9972   
VDW       = -670.9972     QQ        = 0.0000        Bond      = 0.0000      
BondAngle = 0.0000        Torsion   = 0.0000        Tether    = 0.0000      
VIRIAL 
Total     = 557.4487      Constraint= 0.0000      
VDW       = 557.4487      QQ        = 0.0000        Bond      = 0.0000      
BondAngle = 0.0000        Torsion   = 0.0000        Tether    = 0.0000      

--------------------------------------------------------------------------------

Step 7700	 Instantaneous Values
System
Temperature(K) = 240.5000    
Pressure(kbar) = 5.3841      
ConservedQty   = 860.1268    
ENERGY 
Total     = 860.7834      Kinetic   = 1532.7240     Potential = -671.9406   
VDW       = -671.9406     QQ        = 0.0000        Bond      = 0.0000      
BondAngle = 0.0000        Torsion   = 0.0000        Tether    = 0.0000      
VIRIAL 
Total     = 541.5562      Constraint= 0.0000      
VDW       = 541.5562      QQ        = 0.0000        Bond      = 0.0000      
BondAngle = 0.0000        Torsion   = 0.0000        Tether    = 0.0000      

--------------------------------------------------------------------------------

Step 7800	 Instantaneous Values
System
Temperature(K) = 240.5000    
Pressure(kbar) = 5.4232      
ConservedQty   = 858.7490    
ENERGY 
Total     = 860.2234      Kinetic   = 1532.7240     Potential = -672.5007   
VDW       = -672.5007     QQ        = 0.0000        Bond      = 0.0000      
BondAngle = 0.0000        Torsion   = 0.0000        Tether    = 0.0000      
VIRIAL 
Total     = 523.2527      Constraint= 0.0000      
VDW       = 523.2527      QQ        = 0.0000        Bond      = 0.0000      
BondAngle = 0.0000        Torsion   = 0.0000        Tether    = 0.0000      

--------------------------------------------------------------------------------

Step 7900	 Instantaneous Values
System
Temperature(K) = 240.5000    
Pressure(kbar) = 5.2607      
ConservedQty   = 887.1510    
ENERGY 
Total     = 889.8515      Kinetic   = 1532.7240     Potential = -642.8725   
VDW       = -642.8725     QQ        = 0.0000        Bond      = 0.0000      
BondAngle = 0.0000        Torsion   = 0.0000        Tether    = 0.0000      
VIRIAL 
Total     = 599.4006      Constraint= 0.0000      
VDW       = 599.4006      QQ        = 0.0000        Bond      = 0.0000      
BondAngle = 0.0000        Torsion   = 0.0000        Tether    = 0.0000      

--------------------------------------------------------------------------------

Step 8000	 Instantaneous Values
System
Temperature(K) = 240.5000    
Pressure(kbar) = 6.2059      
ConservedQty   = 883.9340    
ENERGY 
Total     = 886.2411      Kinetic   = 1532.7240     Potential = -646.4829   
VDW       = -646.4829     QQ        = 0.0000        Bond      = 0.0000      
BondAngle = 0.0000        Torsion   = 0.0000        Tether    = 0.0000      
VIRIAL 
Total     = 156.3548      Constraint= 0.0000      
VDW       = 156.3548      QQ        = 0.0000        Bond      = 0.0000      
BondAngle = 0.0000        Torsion   = 0.0000        Tether    = 0.0000      

--------------------------------------------------------------------------------

Step 8100	 Instantaneous Values
System
Temperature(K) = 240.5000    
Pressure(kbar) = 5.9539      
ConservedQty   = 875.7244    
ENERGY 
Total     = 878.3950      Kinetic   = 1532.7240     Potential = -654.3290   
VDW       = -654.3290     QQ        = 0.0000        Bond      = 0.0000      
BondAngle = 0.0000        Torsion   = 0.0000        Tether    = 0.0000      
VIRIAL 
Total     = 274.4691      Constraint= 0.0000      
VDW       = 274.4691      QQ        = 0.0000        Bond      = 0.0000      
BondAngle = 0.0000        Torsion   = 0.0000        Tether    = 0.0000      

--------------------------------------------------------------------------------

Step 8200	 Instantaneous Values
System
Temperature(K) = 240.5000    
Pressure(kbar) = 5.0165      
ConservedQty   = 875.6062    
ENERGY 
Total     = 878.1466      Kinetic   = 1532.7240     Potential = -654.5774   
VDW       = -654.5774     QQ        = 0.0000        Bond      = 0.0000      
BondAngle = 0.0000        Torsion   = 0.0000        Tether    = 0.0000      
VIRIAL 
Total     = 713.8931      Constraint= 0.0000      
VDW       = 713.8931      QQ        = 0.0000        Bond      = 0.0000      
BondAngle = 0.0000        Torsion   = 0.0000        Tether    = 0.0000      

--------------------------------------------------------------------------------

Step 8300	 Instantaneous Values
System
Temperature(K) = 240.5000    
Pressure(kbar) = 4.9948      
ConservedQty   = 877.0017    
ENERGY 
Total     = 880.4076      Kinetic   = 1532.7240     Potential = -652.3164   
VDW       = -652.3164     QQ        = 0.0000        Bond      = 0.0000      
BondAngle = 0.0000        Torsion   = 0.0000        Tether    = 0.0000      
VIRIAL 
Total     = 724.0778      Constraint= 0.0000      
VDW       = 724.0778      QQ        = 0.0000        Bond      = 0.0000      
BondAngle = 0.0000        Torsion   = 0.0000        Tether    = 0.0000      

--------------------------------------------------------------------------------

Step 8400	 Instantaneous Values
System
Temperature(K) = 240.5000    
Pressure(kbar) = 5.3294      
ConservedQty   = 876.9853    
ENERGY 
Total     = 880.2903      Kinetic   = 1532.7240     Potential = -652.4337   
VDW       = -652.4337     QQ        = 0.0000        Bond      = 0.0000      
BondAngle = 0.0000        Torsion   = 0.0000        Tether    = 0.0000      
VIRIAL 
Total     = 567.2256      Constraint= 0.0000      
VDW       = 567.2256      QQ        = 0.0000        Bond      = 0.0000      
BondAngle = 0.0000        Torsion   = 0.0000        Tether    = 0.0000      

--------------------------------------------------------------------------------

Step 8500	 Instantaneous Values
System
Temperature(K) = 240.5000    
Pressure(kbar) = 5.6377      
ConservedQty   = 884.3315    
ENERGY 
Total     = 887.9752      Kinetic   = 1532.7240     Potential = -644.7488   
VDW       = -644.7488     QQ        = 0.0000        Bond      = 0.0000      
BondAngle = 0.0000        Torsion   = 0.0000        Tether    = 0.0000      
VIRIAL 
Total     = 422.6986      Constraint= 0.0000      
VDW       = 422.6986      QQ        = 0.0000        Bond      = 0.0000      
BondAngle = 0.0000        Torsion   = 0.0000        Tether    = 0.0000      

--------------------------------------------------------------------------------

Step 8600	 Instantaneous Values
System
Temperature(K) = 240.5000    
Pressure(kbar) = 5.0670      
ConservedQty   = 871.1277    
ENERGY 
Total     = 874.7448      Kinetic   = 1532.7240     Potential = -657.9792   
VDW       = -657.9792     QQ        = 0.0000        Bond      = 0.0000      
BondAngle = 0.0000        Torsion   = 0.0000        Tether    = 0.0000      
VIRIAL 
Total     = 690.2370      Constraint= 0.0000      
VDW       = 690.2370      QQ        = 0.0000        Bond      = 0.0000      
BondAngle = 0.0000        Torsion   = 0.0000        Tether    = 0.0000      

--------------------------------------------------------------------------------

Step 8700	 Instantaneous Values
System
Temperature(K) = 240.5000    
Pressure(kbar) = 5.3340      
ConservedQty   = 857.6574    
ENERGY 
Total     = 862.1270      Kinetic   = 1532.7240     Potential = -670.5970   
VDW       = -670.5970     QQ        = 0.0000        Bond      = 0.0000      
BondAngle = 0.0000        Torsion   = 0.0000        Tether    = 0.0000      
VIRIAL 
Total     = 565.0861      Constraint= 0.0000      
VDW       = 565.0861      QQ        = 0.0000        Bond      = 0.0000      
BondAngle = 0.0000        Torsion   = 0.0000        Tether    = 0.0000      

--------------------------------------------------------------------------------

Step 8800	 Instantaneous Values
System
Temperature(K) = 240.5000    
Pressure(kbar) = 5.9242      
ConservedQty   = 853.2906    
ENERGY 
Total     = 857.4859      Kinetic   = 1532.7240     Potential = -675.2382   
VDW       = -675.2382     QQ        = 0.0000        Bond      = 0.0000      
BondAngle = 0.0000        Torsion   = 0.0000        Tether    = 0.0000      
VIRIAL 
Total     = 288.3957      Constraint= 0.0000      
VDW       = 288.3957      QQ        = 0.0000        Bond      = 0.0000      
BondAngle = 0.0000        Torsion   = 0.0000        Tether    = 0.0000      

--------------------------------------------------------------------------------

Step 8900	 Instantaneous Values
System
Temperature(K) = 240.5000    
Pressure(kbar) = 5.4113      
ConservedQty   = 875.3284    
ENERGY 
Total     = 879.2901      Kinetic   = 1532.7240     Potential = -653.4339   
VDW       = -653.4339     QQ        = 0.0000        Bond      = 0.0000      
BondAngle = 0.0000        Torsion   = 0.0000        Tether    = 0.0000      
VIRIAL 
Total     = 528.8501      Constraint= 0.0000      
VDW       = 528.8501      QQ        = 0.0000        Bond      = 0.0000      
BondAngle = 0.0000        Torsion   = 0.0000        Tether    = 0.0000      

--------------------------------------------------------------------------------

Step 9000	 Instantaneous Values
System
Temperature(K) = 240.5000    
Pressure(kbar) = 5.4885      
ConservedQty   = 861.3184    
ENERGY 
Total     = 865.0651      Kinetic   = 1532.7240     Potential = -667.6589   
VDW       = -667.6589     QQ        = 0.0000        Bond      = 0.0000      
BondAngle = 0.0000        Torsion   = 0.0000        Tether    = 0.0000      
VIRIAL 
Total     = 492.6540      Constraint= 0.0000      
VDW       = 492.6540      QQ        = 0.0000        Bond      = 0.0000      
BondAngle = 0.0000        Torsion   = 0.0000        Tether    = 0.0000      

--------------------------------------------------------------------------------

Step 9100	 Instantaneous Values
System
Temperature(K) = 240.5000    
Pressure(kbar) = 5.0009      
ConservedQty   = 856.1332    
ENERGY 
Total     = 861.0285      Kinetic   = 1532.7240     Potential = -671.6955   
VDW       = -671.6955     QQ        = 0.0000        Bond      = 0.0000      
BondAngle = 0.0000        Torsion   = 0.0000        Tether    = 0.0000      
VIRIAL 
Total     = 721.2063      Constraint= 0.0000      
VDW       = 721.2063      QQ        = 0.0000        Bond      = 0.0000      
BondAngle = 0.0000        Torsion   = 0.0000        Tether    = 0.0000      

--------------------------------------------------------------------------------

Step 9200	 Instantaneous Values
System
Temperature(K) = 240.5000    
Pressure(kbar) = 5.8870      
ConservedQty   = 872.3064    
ENERGY 
Total     = 877.0375      Kinetic   = 1532.7240     Potential = -655.6865   
VDW       = -655.6865     QQ        = 0.0000        Bond      = 0.0000      
BondAngle = 0.0000        Torsion   = 0.0000        Tether    = 0.0000      
VIRIAL 
Total     = 305.8406      Constraint= 0.0000      
VDW       = 305.8406      QQ        = 0.0000        Bond      = 0.0000      
BondAngle = 0.0000        Torsion   = 0.0000        Tether    = 0.0000      

--------------------------------------------------------------------------------

Step 9300	 Instantaneous Values
System
Temperature(K) = 240.5000    
Pressure(kbar) = 5.1420      
ConservedQty   = 875.6278    
ENERGY 
Total     = 880.6032      Kinetic   = 1532.7240     Potential = -652.1208   
VDW       = -652.1208     QQ        = 0.0000        Bond      = 0.0000      
BondAngle = 0.0000        Torsion   = 0.0000        Tether    = 0.0000      
VIRIAL 
Total     = 655.0666      Constraint= 0.0000      
VDW       = 655.0666      QQ        = 0.0000        Bond      = 0.0000      
BondAngle = 0.0000        Torsion   = 0.0000        Tether    = 0.0000      

--------------------------------------------------------------------------------

Step 9400	 Instantaneous Values
System
Temperature(K) = 240.5000    
Pressure(kbar) = 5.1406      
ConservedQty   = 857.2749    
ENERGY 
Total     = 863.7015      Kinetic   = 1532.7240     Potential = -669.0225   
VDW       = -669.0225     QQ        = 0.0000        Bond      = 0.0000      
BondAngle = 0.0000        Torsion   = 0.0000        Tether    = 0.0000      
VIRIAL 
Total     = 655.7408      Constraint= 0.0000      
VDW       = 655.7408      QQ        = 0.0000        Bond      = 0.0000      
BondAngle = 0.0000        Torsion   = 0.0000        Tether    = 0.0000      

--------------------------------------------------------------------------------

Step 9500	 Instantaneous Values
System
Temperature(K) = 240.5000    
Pressure(kbar) = 5.0939      
ConservedQty   = 861.9362    
ENERGY 
Total     = 868.0783      Kinetic   = 1532.7240     Potential = -664.6457   
VDW       = -664.6457     QQ        = 0.0000        Bond      = 0.0000      
BondAngle = 0.0000        Torsion   = 0.0000        Tether    = 0.0000      
VIRIAL 
Total     = 677.6128      Constraint= 0.0000      
VDW       = 677.6128      QQ        = 0.0000        Bond      = 0.0000      
BondAngle = 0.0000        Torsion   = 0.0000        Tether    = 0.0000      

--------------------------------------------------------------------------------

Step 9600	 Instantaneous Values
System
Temperature(K) = 240.5000    
Pressure(kbar) = 5.0029      
ConservedQty   = 873.1954    
ENERGY 
Total     = 879.3641      Kinetic   = 1532.7240     Potential = -653.3599   
VDW       = -653.3599     QQ        = 0.0000        Bond      = 0.0000      
BondAngle = 0.0000        Torsion   = 0.0000        Tether    = 0.0000      
VIRIAL 
Total     = 720.2923      Constraint= 0.0000      
VDW       = 720.2923      QQ        = 0.0000        Bond      = 0.0000      
BondAngle = 0.0000        Torsion   = 0.0000        Tether    = 0.0000      

--------------------------------------------------------------------------------

Step 9700	 Instantaneous Values
System
Temperature(K) = 240.5000    
Pressure(kbar) = 5.8435      
ConservedQty   = 868.9848    
ENERGY 
Total     = 875.2691      Kinetic   = 1532.7240     Potential = -657.4549   
VDW       = -657.4549     QQ        = 0.0000        Bond      = 0.0000      
BondAngle = 0.0000        Torsion   = 0.0000        Tether    = 0.0000      
VIRIAL 
Total     = 326.2053      Constraint= 0.0000      
VDW       = 326.2053      QQ        = 0.0000        Bond      = 0.0000      
BondAngle = 0.0000        Torsion   = 0.0000        Tether    = 0.0000      

--------------------------------------------------------------------------------

Step 9800	 Instantaneous Values
System
Temperature(K) = 240.5000    
Pressure(kbar) = 5.8528      
ConservedQty   = 878.7532    
ENERGY 
Total     = 884.0334      Kinetic   = 1532.7240     Potential = -648.6906   
VDW       = -648.6906     QQ        = 0.0000        Bond      = 0.0000      
BondAngle = 0.0000        Torsion   = 0.0000        Tether    = 0.0000      
VIRIAL 
Total     = 321.8500      Constraint= 0.0000      
VDW       = 321.8500      QQ        = 0.0000        Bond      = 0.0000      
BondAngle = 0.0000        Torsion   = 0.0000        Tether    = 0.0000      

--------------------------------------------------------------------------------

Step 9900	 Instantaneous Values
System
Temperature(K) = 240.5000    
Pressure(kbar) = 5.5672      
ConservedQty   = 848.9888    
ENERGY 
Total     = 853.5574      Kinetic   = 1532.7240     Potential = -679.1666   
VDW       = -679.1666     QQ        = 0.0000        Bond      = 0.0000      
BondAngle = 0.0000        Torsion   = 0.0000        Tether    = 0.0000      
VIRIAL 
Total     = 455.7254      Constraint= 0.0000      
VDW       = 455.7254      QQ        = 0.0000        Bond      = 0.0000      
BondAngle = 0.0000        Torsion   = 0.0000        Tether    = 0.0000      

--------------------------------------------------------------------------------

Step 10000	 Instantaneous Values
System
Temperature(K) = 240.5000    
Pressure(kbar) = 5.5323      
ConservedQty   = 838.7731    
ENERGY 
Total     = 843.6116      Kinetic   = 1532.7240     Potential = -689.1124   
VDW       = -689.1124     QQ        = 0.0000        Bond      = 0.0000      
BondAngle = 0.0000        Torsion   = 0.0000        Tether    = 0.0000      
VIRIAL 
Total     = 472.1243      Constraint= 0.0000      
VDW       = 472.1243      QQ        = 0.0000        Bond      = 0.0000      
BondAngle = 0.0000        Torsion   = 0.0000        Tether    = 0.0000      

--------------------------------------------------------------------------------

Step 10100	 Instantaneous Values
System
Temperature(K) = 240.9854    
Pressure(kbar) = 5.1656      
ConservedQty   = 839.6231    
ENERGY 
Total     = 859.9768      Kinetic   = 1535.8177     Potential = -675.8410   
VDW       = -675.8410     QQ        = 0.0000        Bond      = 0.0000      
BondAngle = 0.0000        Torsion   = 0.0000        Tether    = 0.0000      
VIRIAL 
Total     = 650.1967      Constraint= 0.0000      
VDW       = 650.1967      QQ        = 0.0000        Bond      = 0.0000      
BondAngle = 0.0000        Torsion   = 0.0000        Tether    = 0.0000      

MeanSquaredDisplacement
Species1
Atom 1: 1.14843 
--------------------------------------------------------------------------------

Step 10200	 Instantaneous Values
System
Temperature(K) = 238.5037    
Pressure(kbar) = 5.4289      
ConservedQty   = 839.8480    
ENERGY 
Total     = 873.7579      Kinetic   = 1520.0014     Potential = -646.2435   
VDW       = -646.2435     QQ        = 0.0000        Bond      = 0.0000      
BondAngle = 0.0000        Torsion   = 0.0000        Tether    = 0.0000      
VIRIAL 
Total     = 495.1337      Constraint= 0.0000      
VDW       = 495.1337      QQ        = 0.0000        Bond      = 0.0000      
BondAngle = 0.0000        Torsion   = 0.0000        Tether    = 0.0000      

MeanSquaredDisplacement
Species1
Atom 1: 3.66597 
--------------------------------------------------------------------------------

Step 10300	 Instantaneous Values
System
Temperature(K) = 242.8108    
Pressure(kbar) = 6.5160      
ConservedQty   = 840.2715    
ENERGY 
Total     = 904.6545      Kinetic   = 1547.4510     Potential = -642.7965   
VDW       = -642.7965     QQ        = 0.0000        Bond      = 0.0000      
BondAngle = 0.0000        Torsion   = 0.0000        Tether    = 0.0000      
VIRIAL 
Total     = 40.4208       Constraint= 0.0000      
VDW       = 40.4208       QQ        = 0.0000        Bond      = 0.0000      
BondAngle = 0.0000        Torsion   = 0.0000        Tether    = 0.0000      

MeanSquaredDisplacement
Species1
Atom 1: 6.8329 
--------------------------------------------------------------------------------

Step 10400	 Instantaneous Values
System
Temperature(K) = 238.6747    
Pressure(kbar) = 4.2797      
ConservedQty   = 838.6039    
ENERGY 
Total     = 845.6031      Kinetic   = 1521.0913     Potential = -675.4882   
VDW       = -675.4882     QQ        = 0.0000        Bond      = 0.0000      
BondAngle = 0.0000        Torsion   = 0.0000        Tether    = 0.0000      
VIRIAL 
Total     = 1036.0288     Constraint= 0.0000      
VDW       = 1036.0288     QQ        = 0.0000        Bond      = 0.0000      
BondAngle = 0.0000        Torsion   = 0.0000        Tether    = 0.0000      

MeanSquaredDisplacement
Species1
Atom 1: 10.3784 
--------------------------------------------------------------------------------

Step 10500	 Instantaneous Values
System
Temperature(K) = 241.0626    
Pressure(kbar) = 5.9461      
ConservedQty   = 839.1669    
ENERGY 
Total     = 882.6478      Kinetic   = 1536.3093     Potential = -653.6616   
VDW       = -653.6616     QQ        = 0.0000        Bond      = 0.0000      
BondAngle = 0.0000        Torsion   = 0.0000        Tether    = 0.0000      
VIRIAL 
Total     = 285.2903      Constraint= 0.0000      
VDW       = 285.2903      QQ        = 0.0000        Bond      = 0.0000      
BondAngle = 0.0000        Torsion   = 0.0000        Tether    = 0.0000      

MeanSquaredDisplacement
Species1
Atom 1: 14.156 
--------------------------------------------------------------------------------

Step 10600	 Instantaneous Values
System
Temperature(K) = 238.4681    
Pressure(kbar) = 4.9373      
ConservedQty   = 839.1358    
ENERGY 
Total     = 867.1246      Kinetic   = 1519.7748     Potential = -652.6502   
VDW       = -652.6502     QQ        = 0.0000        Bond      = 0.0000      
BondAngle = 0.0000        Torsion   = 0.0000        Tether    = 0.0000      
VIRIAL 
Total     = 725.1191      Constraint= 0.0000      
VDW       = 725.1191      QQ        = 0.0000        Bond      = 0.0000      
BondAngle = 0.0000        Torsion   = 0.0000        Tether    = 0.0000      

MeanSquaredDisplacement
Species1
Atom 1: 17.8901 
--------------------------------------------------------------------------------

Step 10700	 Instantaneous Values
System
Temperature(K) = 238.8870    
Pressure(kbar) = 5.5564      
ConservedQty   = 839.6052    
ENERGY 
Total     = 868.8679      Kinetic   = 1522.4445     Potential = -653.5767   
VDW       = -653.5767     QQ        = 0.0000        Bond      = 0.0000      
BondAngle = 0.0000        Torsion   = 0.0000        Tether    = 0.0000      
VIRIAL 
Total     = 440.2370      Constraint= 0.0000      
VDW       = 440.2370      QQ        = 0.0000        Bond      = 0.0000      
BondAngle = 0.0000        Torsion   = 0.0000        Tether    = 0.0000      

MeanSquaredDisplacement
Species1
Atom 1: 21.7709 
--------------------------------------------------------------------------------

Step 10800	 Instantaneous Values
System
Temperature(K) = 244.6106    
Pressure(kbar) = 5.4283      
ConservedQty   = 837.6674    
ENERGY 
Total     = 896.4698      Kinetic   = 1558.9209     Potential = -662.4511   
VDW       = -662.4511     QQ        = 0.0000        Bond      = 0.0000      
BondAngle = 0.0000        Torsion   = 0.0000        Tether    = 0.0000      
VIRIAL 
Total     = 573.2367      Constraint= 0.0000      
VDW       = 573.2367      QQ        = 0.0000        Bond      = 0.0000      
BondAngle = 0.0000        Torsion   = 0.0000        Tether    = 0.0000      

MeanSquaredDisplacement
Species1
Atom 1: 25.8388 
--------------------------------------------------------------------------------

Step 10900	 Instantaneous Values
System
Temperature(K) = 234.5513    
Pressure(kbar) = 6.1561      
ConservedQty   = 837.9554    
ENERGY 
Total     = 842.9324      Kinetic   = 1494.8122     Potential = -651.8798   
VDW       = -651.8798     QQ        = 0.0000        Bond      = 0.0000      
BondAngle = 0.0000        Torsion   = 0.0000        Tether    = 0.0000      
VIRIAL 
Total     = 103.8482      Constraint= 0.0000      
VDW       = 103.8482      QQ        = 0.0000        Bond      = 0.0000      
BondAngle = 0.0000        Torsion   = 0.0000        Tether    = 0.0000      

MeanSquaredDisplacement
Species1
Atom 1: 29.912 
--------------------------------------------------------------------------------

Step 11000	 Instantaneous Values
System
Temperature(K) = 242.3951    
Pressure(kbar) = 4.3318      
ConservedQty   = 838.5101    
ENERGY 
Total     = 837.3348      Kinetic   = 1544.8015     Potential = -707.4668   
VDW       = -707.4668     QQ        = 0.0000        Bond      = 0.0000      
BondAngle = 0.0000        Torsion   = 0.0000        Tether    = 0.0000      
VIRIAL 
Total     = 1058.9929     Constraint= 0.0000      
VDW       = 1058.9929     QQ        = 0.0000        Bond      = 0.0000      
BondAngle = 0.0000        Torsion   = 0.0000        Tether    = 0.0000      

MeanSquaredDisplacement
Species1
Atom 1: 33.7839 
--------------------------------------------------------------------------------

Step 11000	Averages
System
CELL
   A          B          C          Alpha      Beta       Gamma   
   13.6800    13.6800    13.6800    90.0000    90.0000    90.0000
Lattice vectors
   1.3680000000e+01    0.0000000000e+00    0.0000000000e+00
   6.1230317691e-38    1.3680000000e+01    0.0000000000e+00
   6.1230317691e-38    6.1230317691e-38    1.3680000000e+01
Cell Volume: 2560.11   
Cell Type: Cubic    PBCType: CUBIC

Temperature(K) = 240.0949    
Pressure(kbar) = 5.3746      
ConservedQty   = 839.0387    
ENERGY 
Total     = 867.9369      Kinetic   = 1530.1425     Potential = -662.2055   
VDW       = -662.2055     QQ        = 0.0000        Bond      = 0.0000      
BondAngle = 0.0000        Torsion   = 0.0000        Tether    = 0.0000      
VIRIAL 
Total     = 540.8504      Constraint= 0.0000      
VDW       = 540.8504      QQ        = 0.0000        Bond      = 0.0000      
BondAngle = 0.0000        Torsion   = 0.0000        Tether    = 0.0000      

--------------------------------------------------------------------------------

--------------------------------------------------------------------------------

Step 11100	 Instantaneous Values
System
Temperature(K) = 239.9969    
Pressure(kbar) = 6.1561      
ConservedQty   = 838.1839    
ENERGY 
Total     = 860.7455      Kinetic   = 1529.5177     Potential = -668.7722   
VDW       = -668.7722     QQ        = 0.0000        Bond      = 0.0000      
BondAngle = 0.0000        Torsion   = 0.0000        Tether    = 0.0000      
VIRIAL 
Total     = 173.2974      Constraint= 0.0000      
VDW       = 173.2974      QQ        = 0.0000        Bond      = 0.0000      
BondAngle = 0.0000        Torsion   = 0.0000        Tether    = 0.0000      

MeanSquaredDisplacement
Species1
Atom 1: 37.8005 
--------------------------------------------------------------------------------

Step 11200	 Instantaneous Values
System
Temperature(K) = 237.0893    
Pressure(kbar) = 6.1088      
ConservedQty   = 838.4863    
ENERGY 
Total     = 842.7579      Kinetic   = 1510.9874     Potential = -668.2295   
VDW       = -668.2295     QQ        = 0.0000        Bond      = 0.0000      
BondAngle = 0.0000        Torsion   = 0.0000        Tether    = 0.0000      
VIRIAL 
Total     = 158.4126      Constraint= 0.0000      
VDW       = 158.4126      QQ        = 0.0000        Bond      = 0.0000      
BondAngle = 0.0000        Torsion   = 0.0000        Tether    = 0.0000      

MeanSquaredDisplacement
Species1
Atom 1: 41.4353 
--------------------------------------------------------------------------------

Step 11300	 Instantaneous Values
System
Temperature(K) = 242.5925    
Pressure(kbar) = 4.0822      
ConservedQty   = 838.8225    
ENERGY 
Total     = 869.9385      Kinetic   = 1546.0594     Potential = -676.1209   
VDW       = -676.1209     QQ        = 0.0000        Bond      = 0.0000      
BondAngle = 0.0000        Torsion   = 0.0000        Tether    = 0.0000      
VIRIAL 
Total     = 1178.5357     Constraint= 0.0000      
VDW       = 1178.5357     QQ        = 0.0000        Bond      = 0.0000      
BondAngle = 0.0000        Torsion   = 0.0000        Tether    = 0.0000      

MeanSquaredDisplacement
Species1
Atom 1: 44.8308 
--------------------------------------------------------------------------------

Step 11400	 Instantaneous Values
System
Temperature(K) = 243.8921    
Pressure(kbar) = 5.5012      
ConservedQty   = 838.8438    
ENERGY 
Total     = 917.3393      Kinetic   = 1554.3423     Potential = -637.0030   
VDW       = -637.0030     QQ        = 0.0000        Bond      = 0.0000      
BondAngle = 0.0000        Torsion   = 0.0000        Tether    = 0.0000      
VIRIAL 
Total     = 529.9434      Constraint= 0.0000      
[...]
VDW       = -677.5629     QQ        = 0.0000        Bond      = 0.0000      
BondAngle = 0.0000        Torsion   = 0.0000        Tether    = 0.0000      
VIRIAL 
Total     = 581.7379      Constraint= 0.0000      
VDW       = 581.7379      QQ        = 0.0000        Bond      = 0.0000      
BondAngle = 0.0000        Torsion   = 0.0000        Tether    = 0.0000      

MeanSquaredDisplacement
Species1
Atom 1: 1878.66 
--------------------------------------------------------------------------------

Step 58000	 Instantaneous Values
System
Temperature(K) = 235.9859    
Pressure(kbar) = 4.4138      
ConservedQty   = 838.3171    
ENERGY 
Total     = 824.3691      Kinetic   = 1503.9550     Potential = -679.5859   
VDW       = -679.5859     QQ        = 0.0000        Bond      = 0.0000      
BondAngle = 0.0000        Torsion   = 0.0000        Tether    = 0.0000      
VIRIAL 
Total     = 938.8874      Constraint= 0.0000      
VDW       = 938.8874      QQ        = 0.0000        Bond      = 0.0000      
BondAngle = 0.0000        Torsion   = 0.0000        Tether    = 0.0000      

MeanSquaredDisplacement
Species1
Atom 1: 1883.92 
--------------------------------------------------------------------------------

Step 58000	Averages
System
CELL
   A          B          C          Alpha      Beta       Gamma   
   13.6800    13.6800    13.6800    90.0000    90.0000    90.0000
Lattice vectors
   1.3680000000e+01    0.0000000000e+00    0.0000000000e+00
   1.2756316186e-39    1.3680000000e+01    0.0000000000e+00
   1.2756316186e-39    1.2756316186e-39    1.3680000000e+01
Cell Volume: 2560.11   
Cell Type: Cubic    PBCType: CUBIC

Temperature(K) = 240.3715    
Pressure(kbar) = 5.3993      
ConservedQty   = 838.8425    
ENERGY 
Total     = 867.9315      Kinetic   = 1531.9051     Potential = -663.9736   
VDW       = -663.9736     QQ        = 0.0000        Bond      = 0.0000      
BondAngle = 0.0000        Torsion   = 0.0000        Tether    = 0.0000      
VIRIAL 
Total     = 532.7942      Constraint= 0.0000      
VDW       = 532.7942      QQ        = 0.0000        Bond      = 0.0000      
BondAngle = 0.0000        Torsion   = 0.0000        Tether    = 0.0000      

--------------------------------------------------------------------------------

--------------------------------------------------------------------------------

Step 58100	 Instantaneous Values
System
Temperature(K) = 246.7300    
Pressure(kbar) = 4.7333      
ConservedQty   = 838.7219    
ENERGY 
Total     = 893.1849      Kinetic   = 1572.4282     Potential = -679.2434   
VDW       = -679.2434     QQ        = 0.0000        Bond      = 0.0000      
BondAngle = 0.0000        Torsion   = 0.0000        Tether    = 0.0000      
VIRIAL 
Total     = 926.0506      Constraint= 0.0000      
VDW       = 926.0506      QQ        = 0.0000        Bond      = 0.0000      
BondAngle = 0.0000        Torsion   = 0.0000        Tether    = 0.0000      

MeanSquaredDisplacement
Species1
Atom 1: 1889.12 
--------------------------------------------------------------------------------

Step 58200	 Instantaneous Values
System
Temperature(K) = 239.7299    
Pressure(kbar) = 5.1275      
ConservedQty   = 838.9678    
ENERGY 
Total     = 850.9309      Kinetic   = 1527.8163     Potential = -676.8855   
VDW       = -676.8855     QQ        = 0.0000        Bond      = 0.0000      
BondAngle = 0.0000        Torsion   = 0.0000        Tether    = 0.0000      
VIRIAL 
Total     = 652.0303      Constraint= 0.0000      
VDW       = 652.0303      QQ        = 0.0000        Bond      = 0.0000      
BondAngle = 0.0000        Torsion   = 0.0000        Tether    = 0.0000      

MeanSquaredDisplacement
Species1
Atom 1: 1893.3 
--------------------------------------------------------------------------------

Step 58300	 Instantaneous Values
System
Temperature(K) = 242.2550    
Pressure(kbar) = 4.6367      
ConservedQty   = 839.6093    
ENERGY 
Total     = 886.3479      Kinetic   = 1543.9088     Potential = -657.5609   
VDW       = -657.5609     QQ        = 0.0000        Bond      = 0.0000      
BondAngle = 0.0000        Torsion   = 0.0000        Tether    = 0.0000      
VIRIAL 
Total     = 914.3216      Constraint= 0.0000      
VDW       = 914.3216      QQ        = 0.0000        Bond      = 0.0000      
BondAngle = 0.0000        Torsion   = 0.0000        Tether    = 0.0000      

MeanSquaredDisplacement
Species1
Atom 1: 1897.12 
--------------------------------------------------------------------------------

Step 58400	 Instantaneous Values
System
Temperature(K) = 242.2728    
Pressure(kbar) = 4.9758      
ConservedQty   = 838.8398    
ENERGY 
Total     = 877.1390      Kinetic   = 1544.0225     Potential = -666.8835   
VDW       = -666.8835     QQ        = 0.0000        Bond      = 0.0000      
BondAngle = 0.0000        Torsion   = 0.0000        Tether    = 0.0000      
VIRIAL 
Total     = 755.5504      Constraint= 0.0000      
VDW       = 755.5504      QQ        = 0.0000        Bond      = 0.0000      
BondAngle = 0.0000        Torsion   = 0.0000        Tether    = 0.0000      

MeanSquaredDisplacement
Species1
Atom 1: 1898.2 
--------------------------------------------------------------------------------

Step 58500	 Instantaneous Values
System
Temperature(K) = 244.7704    
Pressure(kbar) = 4.9130      
ConservedQty   = 839.2278    
ENERGY 
Total     = 885.0876      Kinetic   = 1559.9396     Potential = -674.8520   
VDW       = -674.8520     QQ        = 0.0000        Bond      = 0.0000      
BondAngle = 0.0000        Torsion   = 0.0000        Tether    = 0.0000      
VIRIAL 
Total     = 816.8280      Constraint= 0.0000      
VDW       = 816.8280      QQ        = 0.0000        Bond      = 0.0000      
BondAngle = 0.0000        Torsion   = 0.0000        Tether    = 0.0000      

MeanSquaredDisplacement
Species1
Atom 1: 1902.27 
--------------------------------------------------------------------------------

Step 58600	 Instantaneous Values
System
Temperature(K) = 240.4426    
Pressure(kbar) = 4.7276      
ConservedQty   = 838.4033    
ENERGY 
Total     = 851.9188      Kinetic   = 1532.3585     Potential = -680.4396   
VDW       = -680.4396     QQ        = 0.0000        Bond      = 0.0000      
BondAngle = 0.0000        Torsion   = 0.0000        Tether    = 0.0000      
VIRIAL 
Total     = 848.5869      Constraint= 0.0000      
VDW       = 848.5869      QQ        = 0.0000        Bond      = 0.0000      
BondAngle = 0.0000        Torsion   = 0.0000        Tether    = 0.0000      

MeanSquaredDisplacement
Species1
Atom 1: 1908.26 
--------------------------------------------------------------------------------

Step 58700	 Instantaneous Values
System
Temperature(K) = 239.6050    
Pressure(kbar) = 5.4638      
ConservedQty   = 838.7998    
ENERGY 
Total     = 846.6853      Kinetic   = 1527.0200     Potential = -680.3347   
VDW       = -680.3347     QQ        = 0.0000        Bond      = 0.0000      
BondAngle = 0.0000        Torsion   = 0.0000        Tether    = 0.0000      
VIRIAL 
Total     = 492.7903      Constraint= 0.0000      
VDW       = 492.7903      QQ        = 0.0000        Bond      = 0.0000      
BondAngle = 0.0000        Torsion   = 0.0000        Tether    = 0.0000      

MeanSquaredDisplacement
Species1
Atom 1: 1912.58 
--------------------------------------------------------------------------------

Step 58800	 Instantaneous Values
System
Temperature(K) = 240.1110    
Pressure(kbar) = 6.5254      
ConservedQty   = 838.8099    
ENERGY 
Total     = 898.1787      Kinetic   = 1530.2452     Potential = -632.0664   
VDW       = -632.0664     QQ        = 0.0000        Bond      = 0.0000      
BondAngle = 0.0000        Torsion   = 0.0000        Tether    = 0.0000      
VIRIAL 
Total     = 1.6129        Constraint= 0.0000      
VDW       = 1.6129        QQ        = 0.0000        Bond      = 0.0000      
BondAngle = 0.0000        Torsion   = 0.0000        Tether    = 0.0000      

MeanSquaredDisplacement
Species1
Atom 1: 1919.65 
--------------------------------------------------------------------------------

Step 58900	 Instantaneous Values
System
Temperature(K) = 233.1510    
Pressure(kbar) = 5.2353      
ConservedQty   = 839.0183    
ENERGY 
Total     = 829.2983      Kinetic   = 1485.8886     Potential = -656.5903   
VDW       = -656.5903     QQ        = 0.0000        Bond      = 0.0000      
BondAngle = 0.0000        Torsion   = 0.0000        Tether    = 0.0000      
VIRIAL 
Total     = 517.6641      Constraint= 0.0000      
VDW       = 517.6641      QQ        = 0.0000        Bond      = 0.0000      
BondAngle = 0.0000        Torsion   = 0.0000        Tether    = 0.0000      

MeanSquaredDisplacement
Species1
Atom 1: 1924.11 
--------------------------------------------------------------------------------

Step 59000	 Instantaneous Values
System
Temperature(K) = 247.8977    
Pressure(kbar) = 5.9209      
ConservedQty   = 839.2142    
ENERGY 
Total     = 930.2108      Kinetic   = 1579.8698     Potential = -649.6590   
VDW       = -649.6590     QQ        = 0.0000        Bond      = 0.0000      
BondAngle = 0.0000        Torsion   = 0.0000        Tether    = 0.0000      
VIRIAL 
Total     = 384.2536      Constraint= 0.0000      
VDW       = 384.2536      QQ        = 0.0000        Bond      = 0.0000      
BondAngle = 0.0000        Torsion   = 0.0000        Tether    = 0.0000      

MeanSquaredDisplacement
Species1
Atom 1: 1927.79 
--------------------------------------------------------------------------------

Step 59000	Averages
System
CELL
   A          B          C          Alpha      Beta       Gamma   
   13.6800    13.6800    13.6800    90.0000    90.0000    90.0000
Lattice vectors
   1.3680000000e+01    0.0000000000e+00    0.0000000000e+00
   1.2495983202e-39    1.3680000000e+01    0.0000000000e+00
   1.2495983202e-39    1.2495983202e-39    1.3680000000e+01
Cell Volume: 2560.11   
Cell Type: Cubic    PBCType: CUBIC

Temperature(K) = 240.3985    
Pressure(kbar) = 5.3958      
ConservedQty   = 838.8450    
ENERGY 
Total     = 868.0737      Kinetic   = 1532.0775     Potential = -664.0037   
VDW       = -664.0037     QQ        = 0.0000        Bond      = 0.0000      
BondAngle = 0.0000        Torsion   = 0.0000        Tether    = 0.0000      
VIRIAL 
Total     = 534.7978      Constraint= 0.0000      
VDW       = 534.7978      QQ        = 0.0000        Bond      = 0.0000      
BondAngle = 0.0000        Torsion   = 0.0000        Tether    = 0.0000      

--------------------------------------------------------------------------------

--------------------------------------------------------------------------------

Step 59100	 Instantaneous Values
System
Temperature(K) = 228.9121    
Pressure(kbar) = 5.1676      
ConservedQty   = 839.0368    
ENERGY 
Total     = 767.2031      Kinetic   = 1458.8736     Potential = -691.6705   
VDW       = -691.6705     QQ        = 0.0000        Bond      = 0.0000      
BondAngle = 0.0000        Torsion   = 0.0000        Tether    = 0.0000      
VIRIAL 
Total     = 495.3615      Constraint= 0.0000      
VDW       = 495.3615      QQ        = 0.0000        Bond      = 0.0000      
BondAngle = 0.0000        Torsion   = 0.0000        Tether    = 0.0000      

MeanSquaredDisplacement
Species1
Atom 1: 1929.69 
--------------------------------------------------------------------------------

Step 59200	 Instantaneous Values
System
Temperature(K) = 257.8135    
Pressure(kbar) = 5.6143      
ConservedQty   = 838.5847    
ENERGY 
Total     = 961.5777      Kinetic   = 1643.0643     Potential = -681.4866   
VDW       = -681.4866     QQ        = 0.0000        Bond      = 0.0000      
BondAngle = 0.0000        Torsion   = 0.0000        Tether    = 0.0000      
VIRIAL 
Total     = 654.3275      Constraint= 0.0000      
VDW       = 654.3275      QQ        = 0.0000        Bond      = 0.0000      
BondAngle = 0.0000        Torsion   = 0.0000        Tether    = 0.0000      

MeanSquaredDisplacement
Species1
Atom 1: 1927.44 
--------------------------------------------------------------------------------

Step 59300	 Instantaneous Values
System
Temperature(K) = 227.5341    
Pressure(kbar) = 5.1249      
ConservedQty   = 838.4341    
ENERGY 
Total     = 777.6246      Kinetic   = 1450.0914     Potential = -672.4668   
VDW       = -672.4668     QQ        = 0.0000        Bond      = 0.0000      
BondAngle = 0.0000        Torsion   = 0.0000        Tether    = 0.0000      
VIRIAL 
Total     = 497.8231      Constraint= 0.0000      
VDW       = 497.8231      QQ        = 0.0000        Bond      = 0.0000      
BondAngle = 0.0000        Torsion   = 0.0000        Tether    = 0.0000      

MeanSquaredDisplacement
Species1
Atom 1: 1930.43 
--------------------------------------------------------------------------------

Step 59400	 Instantaneous Values
System
Temperature(K) = 251.8967    
Pressure(kbar) = 5.3777      
ConservedQty   = 839.3181    
ENERGY 
Total     = 933.4833      Kinetic   = 1605.3558     Potential = -671.8726   
VDW       = -671.8726     QQ        = 0.0000        Bond      = 0.0000      
BondAngle = 0.0000        Torsion   = 0.0000        Tether    = 0.0000      
VIRIAL 
Total     = 689.8600      Constraint= 0.0000      
VDW       = 689.8600      QQ        = 0.0000        Bond      = 0.0000      
BondAngle = 0.0000        Torsion   = 0.0000        Tether    = 0.0000      

MeanSquaredDisplacement
Species1
Atom 1: 1934.35 
--------------------------------------------------------------------------------

Step 59500	 Instantaneous Values
System
Temperature(K) = 232.9638    
Pressure(kbar) = 4.7178      
ConservedQty   = 838.9602    
ENERGY 
Total     = 795.9245      Kinetic   = 1484.6954     Potential = -688.7709   
VDW       = -688.7709     QQ        = 0.0000        Bond      = 0.0000      
BondAngle = 0.0000        Torsion   = 0.0000        Tether    = 0.0000      
VIRIAL 
Total     = 757.8550      Constraint= 0.0000      
VDW       = 757.8550      QQ        = 0.0000        Bond      = 0.0000      
BondAngle = 0.0000        Torsion   = 0.0000        Tether    = 0.0000      

MeanSquaredDisplacement
Species1
Atom 1: 1934.94 
--------------------------------------------------------------------------------

Step 59600	 Instantaneous Values
System
Temperature(K) = 247.8173    
Pressure(kbar) = 5.2299      
ConservedQty   = 838.3985    
ENERGY 
Total     = 906.5313      Kinetic   = 1579.3575     Potential = -672.8262   
VDW       = -672.8262     QQ        = 0.0000        Bond      = 0.0000      
BondAngle = 0.0000        Torsion   = 0.0000        Tether    = 0.0000      
VIRIAL 
Total     = 707.1280      Constraint= 0.0000      
VDW       = 707.1280      QQ        = 0.0000        Bond      = 0.0000      
BondAngle = 0.0000        Torsion   = 0.0000        Tether    = 0.0000      

MeanSquaredDisplacement
Species1
Atom 1: 1938.04 
--------------------------------------------------------------------------------

Step 59700	 Instantaneous Values
System
Temperature(K) = 240.4926    
Pressure(kbar) = 4.4941      
ConservedQty   = 839.5145    
ENERGY 
Total     = 847.2151      Kinetic   = 1532.6771     Potential = -685.4621   
VDW       = -685.4621     QQ        = 0.0000        Bond      = 0.0000      
BondAngle = 0.0000        Torsion   = 0.0000        Tether    = 0.0000      
VIRIAL 
Total     = 958.6834      Constraint= 0.0000      
VDW       = 958.6834      QQ        = 0.0000        Bond      = 0.0000      
BondAngle = 0.0000        Torsion   = 0.0000        Tether    = 0.0000      

MeanSquaredDisplacement
Species1
Atom 1: 1942.84 
--------------------------------------------------------------------------------

Step 59800	 Instantaneous Values
System
Temperature(K) = 243.4330    
Pressure(kbar) = 4.6273      
ConservedQty   = 839.7898    
ENERGY 
Total     = 886.2055      Kinetic   = 1551.4165     Potential = -665.2110   
VDW       = -665.2110     QQ        = 0.0000        Bond      = 0.0000      
BondAngle = 0.0000        Torsion   = 0.0000        Tether    = 0.0000      
VIRIAL 
Total     = 933.7329      Constraint= 0.0000      
VDW       = 933.7329      QQ        = 0.0000        Bond      = 0.0000      
BondAngle = 0.0000        Torsion   = 0.0000        Tether    = 0.0000      

MeanSquaredDisplacement
Species1
Atom 1: 1947.02 
--------------------------------------------------------------------------------

Step 59900	 Instantaneous Values
System
Temperature(K) = 243.4186    
Pressure(kbar) = 4.5769      
ConservedQty   = 839.3412    
ENERGY 
Total     = 865.6898      Kinetic   = 1551.3243     Potential = -685.6345   
VDW       = -685.6345     QQ        = 0.0000        Bond      = 0.0000      
BondAngle = 0.0000        Torsion   = 0.0000        Tether    = 0.0000      
VIRIAL 
Total     = 957.1537      Constraint= 0.0000      
VDW       = 957.1537      QQ        = 0.0000        Bond      = 0.0000      
BondAngle = 0.0000        Torsion   = 0.0000        Tether    = 0.0000      

MeanSquaredDisplacement
Species1
Atom 1: 1950.84 
--------------------------------------------------------------------------------

Step 60000	 Instantaneous Values
System
Temperature(K) = 240.1140    
Pressure(kbar) = 5.5189      
ConservedQty   = 839.1375    
ENERGY 
Total     = 873.9386      Kinetic   = 1530.2637     Potential = -656.3251   
VDW       = -656.3251     QQ        = 0.0000        Bond      = 0.0000      
BondAngle = 0.0000        Torsion   = 0.0000        Tether    = 0.0000      
VIRIAL 
Total     = 473.4874      Constraint= 0.0000      
VDW       = 473.4874      QQ        = 0.0000        Bond      = 0.0000      
BondAngle = 0.0000        Torsion   = 0.0000        Tether    = 0.0000      

MeanSquaredDisplacement
Species1
Atom 1: 1953.45 
--------------------------------------------------------------------------------

Step 60000	Averages
System
CELL
   A          B          C          Alpha      Beta       Gamma   
   13.6800    13.6800    13.6800    90.0000    90.0000    90.0000
Lattice vectors
   1.3680000000e+01    0.0000000000e+00    0.0000000000e+00
   1.2246063538e-39    1.3680000000e+01    0.0000000000e+00
   1.2246063538e-39    1.2246063538e-39    1.3680000000e+01
Cell Volume: 2560.11   
Cell Type: Cubic    PBCType: CUBIC

Temperature(K) = 240.4194    
Pressure(kbar) = 5.3888      
ConservedQty   = 838.8491    
ENERGY 
Total     = 867.9430      Kinetic   = 1532.2101     Potential = -664.2671   
VDW       = -664.2671     QQ        = 0.0000        Bond      = 0.0000      
BondAngle = 0.0000        Torsion   = 0.0000        Tether    = 0.0000      
VIRIAL 
Total     = 538.3527      Constraint= 0.0000      
VDW       = 538.3527      QQ        = 0.0000        Bond      = 0.0000      
BondAngle = 0.0000        Torsion   = 0.0000        Tether    = 0.0000      

--------------------------------------------------------------------------------

--------------------------------------------------------------------------------

Step 60000	Averages
System
CELL
   A          B          C          Alpha      Beta       Gamma   
   13.6800    13.6800    13.6800    90.0000    90.0000    90.0000
Lattice vectors
   1.3680000000e+01    0.0000000000e+00    0.0000000000e+00
   1.2246063538e-39    1.3680000000e+01    0.0000000000e+00
   1.2246063538e-39    1.2246063538e-39    1.3680000000e+01
Cell Volume: 2560.11   
Cell Type: Cubic    PBCType: CUBIC

Temperature(K) = 240.4194    
Pressure(kbar) = 5.3888      
ConservedQty   = 838.8491    
ENERGY 
Total     = 867.9430      Kinetic   = 1532.2101     Potential = -664.2671   
VDW       = -664.2671     QQ        = 0.0000        Bond      = 0.0000      
BondAngle = 0.0000        Torsion   = 0.0000        Tether    = 0.0000      
VIRIAL 
Total     = 538.3527      Constraint= 0.0000      
VDW       = 538.3527      QQ        = 0.0000        Bond      = 0.0000      
BondAngle = 0.0000        Torsion   = 0.0000        Tether    = 0.0000      

--------------------------------------------------------------------------------

