LJ
CONTROL PARAMETERS
 Mode:                Molecular Dynamics
 Number Of Steps:     60000
 Equilibration Steps: 10000
 Timestep:            0.0005 ps
 ConstraintTolerance: 1.000e-08
 Ensemble:            NVT    tau(T): 0.02000 Temperature: 240.5 K 
 Temperature scaling: Every 10 steps during equilibration period
 Forcefield:          VDW
 Cutoff : 2.500 Angstrom DCutoff: 0.3000 Angstrom
 LongRangeCorrection: Enabled

 PBC:   CUBIC, Shift particles

 FGDistribution:      Enabled, Active Species: 0    DeltaX = 1.200
 Statistics:          Enabled, Accumulation Interval: 100
 PeriodicOutput Interval:       100
 AveragesOutputInterval:        1000
 Configuration Save Start Step: 1
 Configuration Save Interval:   100000
 Configuration Save Data Level: Coordinates only
 Configuration Input DataLevel: Coordinates only
 IsPDBOutput:   true


--------------------------------------------------------------------------------

Energy units:kj/mol

MOLECULAR ENSEMBLE  
LJ SYSTEM
TotalMass        = 512.000000
CentreOfMass     = -0.002391 0.003500 -0.012219
DegreesOfFreedom = 1536

LJ
number of molecules 512
Atoms 1
 nr atom type res  resnr ffid mass   charge freeze
  1   LJ   LJ  MOL    0   0   1.00   0.0000 false

charge: 0
mass: 1
degrees of freedom: 3

InteractionWeightVDW
0 

InteractionWeightQQ
0 

Atom Connectivity
1 

MC displacement parameters
MaximumTranslation: 0.01 Ang   MaximumRotation: 5 deg

TotalMass        = 512
CentreOfMass     = -0.00239063 0.0035 -0.0122188
DegreesOfFreedom = 1536

NumberOfMolecules  512



--------------------------------------------------------------------------------

Forcefield NON_BONDED PARAMETERS

Cutoff:2.5  DCutoff:0.3
TabulationSize = 2750
vdw 1
  LJ   LJ lj          1        1

--------------------------------------------------------------------------------

CELL
   A          B          C          Alpha      Beta       Gamma   
   10.8580    10.8580    10.8580    90.0000    90.0000    90.0000
Lattice vectors
   1.0858000000e+01    0.0000000000e+00    0.0000000000e+00
   0.0000000000e+00    1.0858000000e+01    0.0000000000e+00
   0.0000000000e+00    0.0000000000e+00    1.0858000000e+01
Cell Volume: 1280.12   
Cell Type: Cubic    PBCType: CUBIC

--------------------------------------------------------------------------------

THERMOSTAT
ExternalTemperature: 240.5 K
Temperature:         0 K
DegreesOfFreedom:    1533
Tau:  0.02 ps
Chi:      0
Chi_bhDT: 0
Chi_fhDT: 0
ConservedIntegral:  0

--------------------------------------------------------------------------------

BAROSTAT
ExtPressure:  599 kbar
Tau(P):       1 ps
Pressure:     0 kbar
Virial:       0 kJ/mol
StressTensor: false


--------------------------------------------------------------------------------

Step 100	 Instantaneous Values
System
Temperature(K) = 240.5000    
Pressure(kbar) = -6.6147     
ConservedQty   = -305.2006   
ENERGY 
Total     = -321.0121     Kinetic   = 1532.7240     Potential = -1853.7362  
VDW       = -1853.7362    QQ        = 0.0000        Bond      = 0.0000      
BondAngle = 0.0000        Torsion   = 0.0000        Tether    = 0.0000      
VIRIAL 
Total     = 4615.8780     Constraint= 0.0000      
VDW       = 4615.8780     QQ        = 0.0000        Bond      = 0.0000      
BondAngle = 0.0000        Torsion   = 0.0000        Tether    = 0.0000      

--------------------------------------------------------------------------------

Step 200	 Instantaneous Values
System
Temperature(K) = 240.5000    
Pressure(kbar) = 6.8246      
ConservedQty   = 52.2877     
ENERGY 
Total     = 45.0321       Kinetic   = 1532.7240     Potential = -1487.6919  
VDW       = -1487.6919    QQ        = 0.0000        Bond      = 0.0000      
BondAngle = 0.0000        Torsion   = 0.0000        Tether    = 0.0000      
VIRIAL 
Total     = 1465.8114     Constraint= 0.0000      
VDW       = 1465.8114     QQ        = 0.0000        Bond      = 0.0000      
BondAngle = 0.0000        Torsion   = 0.0000        Tether    = 0.0000      

--------------------------------------------------------------------------------

Step 300	 Instantaneous Values
System
Temperature(K) = 240.5000    
Pressure(kbar) = 10.1043     
ConservedQty   = 102.0152    
ENERGY 
Total     = 95.8560       Kinetic   = 1532.7240     Potential = -1436.8680  
VDW       = -1436.8680    QQ        = 0.0000        Bond      = 0.0000      
BondAngle = 0.0000        Torsion   = 0.0000        Tether    = 0.0000      
VIRIAL 
Total     = 697.0657      Constraint= 0.0000      
VDW       = 697.0657      QQ        = 0.0000        Bond      = 0.0000      
BondAngle = 0.0000        Torsion   = 0.0000        Tether    = 0.0000      

--------------------------------------------------------------------------------

Step 400	 Instantaneous Values
System
Temperature(K) = 240.5000    
Pressure(kbar) = 12.8102     
ConservedQty   = 87.8583     
ENERGY 
Total     = 80.6923       Kinetic   = 1532.7240     Potential = -1452.0317  
VDW       = -1452.0317    QQ        = 0.0000        Bond      = 0.0000      
BondAngle = 0.0000        Torsion   = 0.0000        Tether    = 0.0000      
VIRIAL 
Total     = 62.8338       Constraint= 0.0000      
VDW       = 62.8338       QQ        = 0.0000        Bond      = 0.0000      
BondAngle = 0.0000        Torsion   = 0.0000        Tether    = 0.0000      

--------------------------------------------------------------------------------

Step 500	 Instantaneous Values
System
Temperature(K) = 240.5000    
Pressure(kbar) = 15.5092     
ConservedQty   = 180.8263    
ENERGY 
Total     = 176.6787      Kinetic   = 1532.7240     Potential = -1356.0453  
VDW       = -1356.0453    QQ        = 0.0000        Bond      = 0.0000      
BondAngle = 0.0000        Torsion   = 0.0000        Tether    = 0.0000      
VIRIAL 
Total     = -569.7958     Constraint= 0.0000      
VDW       = -569.7958     QQ        = 0.0000        Bond      = 0.0000      
BondAngle = 0.0000        Torsion   = 0.0000        Tether    = 0.0000      

--------------------------------------------------------------------------------

Step 600	 Instantaneous Values
System
Temperature(K) = 240.5000    
Pressure(kbar) = 11.3045     
ConservedQty   = 189.6108    
ENERGY 
Total     = 184.4544      Kinetic   = 1532.7240     Potential = -1348.2696  
VDW       = -1348.2696    QQ        = 0.0000        Bond      = 0.0000      
BondAngle = 0.0000        Torsion   = 0.0000        Tether    = 0.0000      
VIRIAL 
Total     = 415.7401      Constraint= 0.0000      
VDW       = 415.7401      QQ        = 0.0000        Bond      = 0.0000      
BondAngle = 0.0000        Torsion   = 0.0000        Tether    = 0.0000      

--------------------------------------------------------------------------------

Step 700	 Instantaneous Values
System
Temperature(K) = 240.5000    
Pressure(kbar) = 12.3535     
ConservedQty   = 238.9437    
ENERGY 
Total     = 234.7629      Kinetic   = 1532.7240     Potential = -1297.9611  
VDW       = -1297.9611    QQ        = 0.0000        Bond      = 0.0000      
BondAngle = 0.0000        Torsion   = 0.0000        Tether    = 0.0000      
VIRIAL 
Total     = 169.8816      Constraint= 0.0000      
VDW       = 169.8816      QQ        = 0.0000        Bond      = 0.0000      
BondAngle = 0.0000        Torsion   = 0.0000        Tether    = 0.0000      

--------------------------------------------------------------------------------

Step 800	 Instantaneous Values
System
Temperature(K) = 240.5000    
Pressure(kbar) = 10.0899     
ConservedQty   = 206.7477    
ENERGY 
Total     = 202.1824      Kinetic   = 1532.7240     Potential = -1330.5416  
VDW       = -1330.5416    QQ        = 0.0000        Bond      = 0.0000      
BondAngle = 0.0000        Torsion   = 0.0000        Tether    = 0.0000      
VIRIAL 
Total     = 700.4505      Constraint= 0.0000      
VDW       = 700.4505      QQ        = 0.0000        Bond      = 0.0000      
BondAngle = 0.0000        Torsion   = 0.0000        Tether    = 0.0000      

--------------------------------------------------------------------------------

Step 900	 Instantaneous Values
System
Temperature(K) = 240.5000    
Pressure(kbar) = 10.3818     
ConservedQty   = 217.4378    
ENERGY 
Total     = 213.0222      Kinetic   = 1532.7240     Potential = -1319.7018  
VDW       = -1319.7018    QQ        = 0.0000        Bond      = 0.0000      
BondAngle = 0.0000        Torsion   = 0.0000        Tether    = 0.0000      
VIRIAL 
Total     = 632.0184      Constraint= 0.0000      
VDW       = 632.0184      QQ        = 0.0000        Bond      = 0.0000      
BondAngle = 0.0000        Torsion   = 0.0000        Tether    = 0.0000      

--------------------------------------------------------------------------------

Step 1000	 Instantaneous Values
System
Temperature(K) = 240.5000    
Pressure(kbar) = 11.6624     
ConservedQty   = 237.2868    
ENERGY 
Total     = 233.1160      Kinetic   = 1532.7240     Potential = -1299.6080  
VDW       = -1299.6080    QQ        = 0.0000        Bond      = 0.0000      
BondAngle = 0.0000        Torsion   = 0.0000        Tether    = 0.0000      
VIRIAL 
Total     = 331.8680      Constraint= 0.0000      
VDW       = 331.8680      QQ        = 0.0000        Bond      = 0.0000      
BondAngle = 0.0000        Torsion   = 0.0000        Tether    = 0.0000      

--------------------------------------------------------------------------------

Step 1100	 Instantaneous Values
System
Temperature(K) = 240.5000    
Pressure(kbar) = 10.7754     
ConservedQty   = 224.3331    
ENERGY 
Total     = 218.6644      Kinetic   = 1532.7240     Potential = -1314.0596  
VDW       = -1314.0596    QQ        = 0.0000        Bond      = 0.0000      
BondAngle = 0.0000        Torsion   = 0.0000        Tether    = 0.0000      
VIRIAL 
Total     = 539.7686      Constraint= 0.0000      
VDW       = 539.7686      QQ        = 0.0000        Bond      = 0.0000      
BondAngle = 0.0000        Torsion   = 0.0000        Tether    = 0.0000      

--------------------------------------------------------------------------------

Step 1200	 Instantaneous Values
System
Temperature(K) = 240.5000    
Pressure(kbar) = 11.3073     
ConservedQty   = 231.0582    
ENERGY 
Total     = 225.8704      Kinetic   = 1532.7240     Potential = -1306.8536  
VDW       = -1306.8536    QQ        = 0.0000        Bond      = 0.0000      
BondAngle = 0.0000        Torsion   = 0.0000        Tether    = 0.0000      
VIRIAL 
Total     = 415.0983      Constraint= 0.0000      
VDW       = 415.0983      QQ        = 0.0000        Bond      = 0.0000      
BondAngle = 0.0000        Torsion   = 0.0000        Tether    = 0.0000      

--------------------------------------------------------------------------------

Step 1300	 Instantaneous Values
System
Temperature(K) = 240.5000    
Pressure(kbar) = 14.1437     
ConservedQty   = 252.2044    
ENERGY 
Total     = 249.3673      Kinetic   = 1532.7240     Potential = -1283.3568  
VDW       = -1283.3568    QQ        = 0.0000        Bond      = 0.0000      
BondAngle = 0.0000        Torsion   = 0.0000        Tether    = 0.0000      
VIRIAL 
Total     = -249.7392     Constraint= 0.0000      
VDW       = -249.7392     QQ        = 0.0000        Bond      = 0.0000      
BondAngle = 0.0000        Torsion   = 0.0000        Tether    = 0.0000      

--------------------------------------------------------------------------------

Step 1400	 Instantaneous Values
System
Temperature(K) = 240.5000    
Pressure(kbar) = 11.3389     
ConservedQty   = 243.9153    
ENERGY 
Total     = 240.9242      Kinetic   = 1532.7240     Potential = -1291.7998  
VDW       = -1291.7998    QQ        = 0.0000        Bond      = 0.0000      
BondAngle = 0.0000        Torsion   = 0.0000        Tether    = 0.0000      
VIRIAL 
Total     = 407.6802      Constraint= 0.0000      
VDW       = 407.6802      QQ        = 0.0000        Bond      = 0.0000      
BondAngle = 0.0000        Torsion   = 0.0000        Tether    = 0.0000      

--------------------------------------------------------------------------------

Step 1500	 Instantaneous Values
System
Temperature(K) = 240.5000    
Pressure(kbar) = 12.1603     
ConservedQty   = 221.6766    
ENERGY 
Total     = 216.9780      Kinetic   = 1532.7240     Potential = -1315.7460  
VDW       = -1315.7460    QQ        = 0.0000        Bond      = 0.0000      
BondAngle = 0.0000        Torsion   = 0.0000        Tether    = 0.0000      
VIRIAL 
Total     = 215.1635      Constraint= 0.0000      
VDW       = 215.1635      QQ        = 0.0000        Bond      = 0.0000      
BondAngle = 0.0000        Torsion   = 0.0000        Tether    = 0.0000      

--------------------------------------------------------------------------------

Step 1600	 Instantaneous Values
System
Temperature(K) = 240.5000    
Pressure(kbar) = 13.2710     
ConservedQty   = 271.0077    
ENERGY 
Total     = 268.8199      Kinetic   = 1532.7240     Potential = -1263.9041  
VDW       = -1263.9041    QQ        = 0.0000        Bond      = 0.0000      
BondAngle = 0.0000        Torsion   = 0.0000        Tether    = 0.0000      
VIRIAL 
Total     = -45.1906      Constraint= 0.0000      
VDW       = -45.1906      QQ        = 0.0000        Bond      = 0.0000      
BondAngle = 0.0000        Torsion   = 0.0000        Tether    = 0.0000      

--------------------------------------------------------------------------------

Step 1700	 Instantaneous Values
System
Temperature(K) = 240.5000    
Pressure(kbar) = 10.9949     
ConservedQty   = 243.7203    
ENERGY 
Total     = 242.1755      Kinetic   = 1532.7240     Potential = -1290.5485  
VDW       = -1290.5485    QQ        = 0.0000        Bond      = 0.0000      
BondAngle = 0.0000        Torsion   = 0.0000        Tether    = 0.0000      
VIRIAL 
Total     = 488.3273      Constraint= 0.0000      
VDW       = 488.3273      QQ        = 0.0000        Bond      = 0.0000      
BondAngle = 0.0000        Torsion   = 0.0000        Tether    = 0.0000      

--------------------------------------------------------------------------------

Step 1800	 Instantaneous Values
System
Temperature(K) = 240.5000    
Pressure(kbar) = 12.5347     
ConservedQty   = 227.7013    
ENERGY 
Total     = 224.4154      Kinetic   = 1532.7240     Potential = -1308.3086  
VDW       = -1308.3086    QQ        = 0.0000        Bond      = 0.0000      
BondAngle = 0.0000        Torsion   = 0.0000        Tether    = 0.0000      
VIRIAL 
Total     = 127.4053      Constraint= 0.0000      
VDW       = 127.4053      QQ        = 0.0000        Bond      = 0.0000      
BondAngle = 0.0000        Torsion   = 0.0000        Tether    = 0.0000      

--------------------------------------------------------------------------------

Step 1900	 Instantaneous Values
System
Temperature(K) = 240.5000    
Pressure(kbar) = 9.9515      
ConservedQty   = 236.6420    
ENERGY 
Total     = 233.2561      Kinetic   = 1532.7240     Potential = -1299.4679  
VDW       = -1299.4679    QQ        = 0.0000        Bond      = 0.0000      
BondAngle = 0.0000        Torsion   = 0.0000        Tether    = 0.0000      
VIRIAL 
Total     = 732.8917      Constraint= 0.0000      
VDW       = 732.8917      QQ        = 0.0000        Bond      = 0.0000      
BondAngle = 0.0000        Torsion   = 0.0000        Tether    = 0.0000      

--------------------------------------------------------------------------------

Step 2000	 Instantaneous Values
System
Temperature(K) = 240.5000    
Pressure(kbar) = 10.0562     
ConservedQty   = 225.6782    
ENERGY 
Total     = 223.5172      Kinetic   = 1532.7240     Potential = -1309.2069  
VDW       = -1309.2069    QQ        = 0.0000        Bond      = 0.0000      
BondAngle = 0.0000        Torsion   = 0.0000        Tether    = 0.0000      
VIRIAL 
Total     = 708.3519      Constraint= 0.0000      
VDW       = 708.3519      QQ        = 0.0000        Bond      = 0.0000      
BondAngle = 0.0000        Torsion   = 0.0000        Tether    = 0.0000      

--------------------------------------------------------------------------------

Step 2100	 Instantaneous Values
System
Temperature(K) = 240.5000    
Pressure(kbar) = 9.7658      
ConservedQty   = 219.9287    
ENERGY 
Total     = 218.9163      Kinetic   = 1532.7240     Potential = -1313.8077  
VDW       = -1313.8077    QQ        = 0.0000        Bond      = 0.0000      
BondAngle = 0.0000        Torsion   = 0.0000        Tether    = 0.0000      
VIRIAL 
Total     = 776.4201      Constraint= 0.0000      
VDW       = 776.4201      QQ        = 0.0000        Bond      = 0.0000      
BondAngle = 0.0000        Torsion   = 0.0000        Tether    = 0.0000      

--------------------------------------------------------------------------------

Step 2200	 Instantaneous Values
System
Temperature(K) = 240.5000    
Pressure(kbar) = 10.6622     
ConservedQty   = 241.0265    
ENERGY 
Total     = 240.1160      Kinetic   = 1532.7240     Potential = -1292.6080  
VDW       = -1292.6080    QQ        = 0.0000        Bond      = 0.0000      
BondAngle = 0.0000        Torsion   = 0.0000        Tether    = 0.0000      
VIRIAL 
Total     = 566.3063      Constraint= 0.0000      
VDW       = 566.3063      QQ        = 0.0000        Bond      = 0.0000      
BondAngle = 0.0000        Torsion   = 0.0000        Tether    = 0.0000      

--------------------------------------------------------------------------------

Step 2300	 Instantaneous Values
System
Temperature(K) = 240.5000    
Pressure(kbar) = 12.3192     
ConservedQty   = 255.2345    
ENERGY 
Total     = 254.6420      Kinetic   = 1532.7240     Potential = -1278.0821  
VDW       = -1278.0821    QQ        = 0.0000        Bond      = 0.0000      
BondAngle = 0.0000        Torsion   = 0.0000        Tether    = 0.0000      
VIRIAL 
Total     = 177.9149      Constraint= 0.0000      
VDW       = 177.9149      QQ        = 0.0000        Bond      = 0.0000      
BondAngle = 0.0000        Torsion   = 0.0000        Tether    = 0.0000      

--------------------------------------------------------------------------------

Step 2400	 Instantaneous Values
System
Temperature(K) = 240.5000    
Pressure(kbar) = 10.8725     
ConservedQty   = 223.3441    
ENERGY 
Total     = 223.5012      Kinetic   = 1532.7240     Potential = -1309.2228  
VDW       = -1309.2228    QQ        = 0.0000        Bond      = 0.0000      
BondAngle = 0.0000        Torsion   = 0.0000        Tether    = 0.0000      
VIRIAL 
Total     = 517.0154      Constraint= 0.0000      
VDW       = 517.0154      QQ        = 0.0000        Bond      = 0.0000      
BondAngle = 0.0000        Torsion   = 0.0000        Tether    = 0.0000      

--------------------------------------------------------------------------------

Step 2500	 Instantaneous Values
System
Temperature(K) = 240.5000    
Pressure(kbar) = 10.7517     
ConservedQty   = 237.5598    
ENERGY 
Total     = 237.3283      Kinetic   = 1532.7240     Potential = -1295.3957  
VDW       = -1295.3957    QQ        = 0.0000        Bond      = 0.0000      
BondAngle = 0.0000        Torsion   = 0.0000        Tether    = 0.0000      
VIRIAL 
Total     = 545.3297      Constraint= 0.0000      
VDW       = 545.3297      QQ        = 0.0000        Bond      = 0.0000      
BondAngle = 0.0000        Torsion   = 0.0000        Tether    = 0.0000      

--------------------------------------------------------------------------------

Step 2600	 Instantaneous Values
System
Temperature(K) = 240.5000    
Pressure(kbar) = 11.2738     
ConservedQty   = 235.8249    
ENERGY 
Total     = 235.4870      Kinetic   = 1532.7240     Potential = -1297.2370  
VDW       = -1297.2370    QQ        = 0.0000        Bond      = 0.0000      
BondAngle = 0.0000        Torsion   = 0.0000        Tether    = 0.0000      
VIRIAL 
Total     = 422.9547      Constraint= 0.0000      
VDW       = 422.9547      QQ        = 0.0000        Bond      = 0.0000      
BondAngle = 0.0000        Torsion   = 0.0000        Tether    = 0.0000      

--------------------------------------------------------------------------------

Step 2700	 Instantaneous Values
System
Temperature(K) = 240.5000    
Pressure(kbar) = 14.7166     
ConservedQty   = 254.0477    
ENERGY 
Total     = 256.8186      Kinetic   = 1532.7240     Potential = -1275.9054  
VDW       = -1275.9054    QQ        = 0.0000        Bond      = 0.0000      
BondAngle = 0.0000        Torsion   = 0.0000        Tether    = 0.0000      
VIRIAL 
Total     = -384.0348     Constraint= 0.0000      
VDW       = -384.0348     QQ        = 0.0000        Bond      = 0.0000      
BondAngle = 0.0000        Torsion   = 0.0000        Tether    = 0.0000      

--------------------------------------------------------------------------------

Step 2800	 Instantaneous Values
System
Temperature(K) = 240.5000    
Pressure(kbar) = 11.7882     
ConservedQty   = 237.1947    
ENERGY 
Total     = 238.1584      Kinetic   = 1532.7240     Potential = -1294.5656  
VDW       = -1294.5656    QQ        = 0.0000        Bond      = 0.0000      
BondAngle = 0.0000        Torsion   = 0.0000        Tether    = 0.0000      
VIRIAL 
Total     = 302.3684      Constraint= 0.0000      
VDW       = 302.3684      QQ        = 0.0000        Bond      = 0.0000      
BondAngle = 0.0000        Torsion   = 0.0000        Tether    = 0.0000      

--------------------------------------------------------------------------------

Step 2900	 Instantaneous Values
System
Temperature(K) = 240.5000    
Pressure(kbar) = 11.9518     
ConservedQty   = 258.2221    
ENERGY 
Total     = 260.5365      Kinetic   = 1532.7240     Potential = -1272.1875  
VDW       = -1272.1875    QQ        = 0.0000        Bond      = 0.0000      
BondAngle = 0.0000        Torsion   = 0.0000        Tether    = 0.0000      
VIRIAL 
Total     = 264.0280      Constraint= 0.0000      
VDW       = 264.0280      QQ        = 0.0000        Bond      = 0.0000      
BondAngle = 0.0000        Torsion   = 0.0000        Tether    = 0.0000      

--------------------------------------------------------------------------------

Step 3000	 Instantaneous Values
System
Temperature(K) = 240.5000    
Pressure(kbar) = 12.0612     
ConservedQty   = 242.6006    
ENERGY 
Total     = 246.2851      Kinetic   = 1532.7240     Potential = -1286.4389  
VDW       = -1286.4389    QQ        = 0.0000        Bond      = 0.0000      
BondAngle = 0.0000        Torsion   = 0.0000        Tether    = 0.0000      
VIRIAL 
Total     = 238.3859      Constraint= 0.0000      
VDW       = 238.3859      QQ        = 0.0000        Bond      = 0.0000      
BondAngle = 0.0000        Torsion   = 0.0000        Tether    = 0.0000      

--------------------------------------------------------------------------------

Step 3100	 Instantaneous Values
System
Temperature(K) = 240.5000    
Pressure(kbar) = 10.4699     
ConservedQty   = 244.5258    
ENERGY 
Total     = 247.6902      Kinetic   = 1532.7240     Potential = -1285.0338  
VDW       = -1285.0338    QQ        = 0.0000        Bond      = 0.0000      
BondAngle = 0.0000        Torsion   = 0.0000        Tether    = 0.0000      
VIRIAL 
Total     = 611.3762      Constraint= 0.0000      
VDW       = 611.3762      QQ        = 0.0000        Bond      = 0.0000      
BondAngle = 0.0000        Torsion   = 0.0000        Tether    = 0.0000      

--------------------------------------------------------------------------------

Step 3200	 Instantaneous Values
System
Temperature(K) = 240.5000    
Pressure(kbar) = 12.1789     
ConservedQty   = 226.5051    
ENERGY 
Total     = 229.4733      Kinetic   = 1532.7240     Potential = -1303.2507  
VDW       = -1303.2507    QQ        = 0.0000        Bond      = 0.0000      
BondAngle = 0.0000        Torsion   = 0.0000        Tether    = 0.0000      
VIRIAL 
Total     = 210.8070      Constraint= 0.0000      
VDW       = 210.8070      QQ        = 0.0000        Bond      = 0.0000      
BondAngle = 0.0000        Torsion   = 0.0000        Tether    = 0.0000      

--------------------------------------------------------------------------------

Step 3300	 Instantaneous Values
System
Temperature(K) = 240.5000    
Pressure(kbar) = 10.6141     
ConservedQty   = 216.3660    
ENERGY 
Total     = 219.2024      Kinetic   = 1532.7240     Potential = -1313.5216  
VDW       = -1313.5216    QQ        = 0.0000        Bond      = 0.0000      
BondAngle = 0.0000        Torsion   = 0.0000        Tether    = 0.0000      
VIRIAL 
Total     = 577.5730      Constraint= 0.0000      
VDW       = 577.5730      QQ        = 0.0000        Bond      = 0.0000      
BondAngle = 0.0000        Torsion   = 0.0000        Tether    = 0.0000      

--------------------------------------------------------------------------------

Step 3400	 Instantaneous Values
System
Temperature(K) = 240.5000    
Pressure(kbar) = 14.2701     
ConservedQty   = 265.8437    
ENERGY 
Total     = 269.6375      Kinetic   = 1532.7240     Potential = -1263.0865  
VDW       = -1263.0865    QQ        = 0.0000        Bond      = 0.0000      
BondAngle = 0.0000        Torsion   = 0.0000        Tether    = 0.0000      
VIRIAL 
Total     = -279.3635     Constraint= 0.0000      
VDW       = -279.3635     QQ        = 0.0000        Bond      = 0.0000      
BondAngle = 0.0000        Torsion   = 0.0000        Tether    = 0.0000      

--------------------------------------------------------------------------------

Step 3500	 Instantaneous Values
System
Temperature(K) = 240.5000    
Pressure(kbar) = 9.6380      
ConservedQty   = 250.5859    
ENERGY 
Total     = 254.6963      Kinetic   = 1532.7240     Potential = -1278.0277  
VDW       = -1278.0277    QQ        = 0.0000        Bond      = 0.0000      
BondAngle = 0.0000        Torsion   = 0.0000        Tether    = 0.0000      
VIRIAL 
Total     = 806.3744      Constraint= 0.0000      
VDW       = 806.3744      QQ        = 0.0000        Bond      = 0.0000      
BondAngle = 0.0000        Torsion   = 0.0000        Tether    = 0.0000      

--------------------------------------------------------------------------------

Step 3600	 Instantaneous Values
System
Temperature(K) = 240.5000    
Pressure(kbar) = 9.0482      
ConservedQty   = 201.2633    
ENERGY 
Total     = 202.8818      Kinetic   = 1532.7240     Potential = -1329.8422  
VDW       = -1329.8422    QQ        = 0.0000        Bond      = 0.0000      
BondAngle = 0.0000        Torsion   = 0.0000        Tether    = 0.0000      
VIRIAL 
Total     = 944.6043      Constraint= 0.0000      
VDW       = 944.6043      QQ        = 0.0000        Bond      = 0.0000      
BondAngle = 0.0000        Torsion   = 0.0000        Tether    = 0.0000      

--------------------------------------------------------------------------------

Step 3700	 Instantaneous Values
System
Temperature(K) = 240.5000    
Pressure(kbar) = 10.5519     
ConservedQty   = 215.8690    
ENERGY 
Total     = 217.2228      Kinetic   = 1532.7240     Potential = -1315.5012  
VDW       = -1315.5012    QQ        = 0.0000        Bond      = 0.0000      
BondAngle = 0.0000        Torsion   = 0.0000        Tether    = 0.0000      
VIRIAL 
Total     = 592.1645      Constraint= 0.0000      
VDW       = 592.1645      QQ        = 0.0000        Bond      = 0.0000      
BondAngle = 0.0000        Torsion   = 0.0000        Tether    = 0.0000      

--------------------------------------------------------------------------------

Step 3800	 Instantaneous Values
System
Temperature(K) = 240.5000    
Pressure(kbar) = 8.7267      
ConservedQty   = 214.3569    
ENERGY 
Total     = 216.0522      Kinetic   = 1532.7240     Potential = -1316.6719  
VDW       = -1316.6719    QQ        = 0.0000        Bond      = 0.0000      
BondAngle = 0.0000        Torsion   = 0.0000        Tether    = 0.0000      
VIRIAL 
Total     = 1019.9695     Constraint= 0.0000      
VDW       = 1019.9695     QQ        = 0.0000        Bond      = 0.0000      
BondAngle = 0.0000        Torsion   = 0.0000        Tether    = 0.0000      

--------------------------------------------------------------------------------

Step 3900	 Instantaneous Values
System
Temperature(K) = 240.5000    
Pressure(kbar) = 9.6147      
ConservedQty   = 196.8199    
ENERGY 
Total     = 197.0256      Kinetic   = 1532.7240     Potential = -1335.6984  
VDW       = -1335.6984    QQ        = 0.0000        Bond      = 0.0000      
BondAngle = 0.0000        Torsion   = 0.0000        Tether    = 0.0000      
VIRIAL 
Total     = 811.8198      Constraint= 0.0000      
VDW       = 811.8198      QQ        = 0.0000        Bond      = 0.0000      
BondAngle = 0.0000        Torsion   = 0.0000        Tether    = 0.0000      

--------------------------------------------------------------------------------

Step 4000	 Instantaneous Values
System
Temperature(K) = 240.5000    
Pressure(kbar) = 13.1326     
ConservedQty   = 261.5328    
ENERGY 
Total     = 263.6246      Kinetic   = 1532.7240     Potential = -1269.0994  
VDW       = -1269.0994    QQ        = 0.0000        Bond      = 0.0000      
BondAngle = 0.0000        Torsion   = 0.0000        Tether    = 0.0000      
VIRIAL 
Total     = -12.7333      Constraint= 0.0000      
VDW       = -12.7333      QQ        = 0.0000        Bond      = 0.0000      
BondAngle = 0.0000        Torsion   = 0.0000        Tether    = 0.0000      

--------------------------------------------------------------------------------

Step 4100	 Instantaneous Values
System
Temperature(K) = 240.5000    
Pressure(kbar) = 11.0683     
ConservedQty   = 248.6286    
ENERGY 
Total     = 250.2479      Kinetic   = 1532.7240     Potential = -1282.4761  
VDW       = -1282.4761    QQ        = 0.0000        Bond      = 0.0000      
BondAngle = 0.0000        Torsion   = 0.0000        Tether    = 0.0000      
VIRIAL 
Total     = 471.1118      Constraint= 0.0000      
VDW       = 471.1118      QQ        = 0.0000        Bond      = 0.0000      
BondAngle = 0.0000        Torsion   = 0.0000        Tether    = 0.0000      

--------------------------------------------------------------------------------

Step 4200	 Instantaneous Values
System
Temperature(K) = 240.5000    
Pressure(kbar) = 12.8407     
ConservedQty   = 251.6774    
ENERGY 
Total     = 253.3436      Kinetic   = 1532.7240     Potential = -1279.3804  
VDW       = -1279.3804    QQ        = 0.0000        Bond      = 0.0000      
BondAngle = 0.0000        Torsion   = 0.0000        Tether    = 0.0000      
VIRIAL 
Total     = 55.6632       Constraint= 0.0000      
VDW       = 55.6632       QQ        = 0.0000        Bond      = 0.0000      
BondAngle = 0.0000        Torsion   = 0.0000        Tether    = 0.0000      

--------------------------------------------------------------------------------

Step 4300	 Instantaneous Values
System
Temperature(K) = 240.5000    
Pressure(kbar) = 9.7179      
ConservedQty   = 220.7912    
ENERGY 
Total     = 222.5133      Kinetic   = 1532.7240     Potential = -1310.2107  
VDW       = -1310.2107    QQ        = 0.0000        Bond      = 0.0000      
BondAngle = 0.0000        Torsion   = 0.0000        Tether    = 0.0000      
VIRIAL 
Total     = 787.6474      Constraint= 0.0000      
VDW       = 787.6474      QQ        = 0.0000        Bond      = 0.0000      
BondAngle = 0.0000        Torsion   = 0.0000        Tether    = 0.0000      

--------------------------------------------------------------------------------

Step 4400	 Instantaneous Values
System
Temperature(K) = 240.5000    
Pressure(kbar) = 10.0842     
ConservedQty   = 219.8816    
ENERGY 
Total     = 221.7985      Kinetic   = 1532.7240     Potential = -1310.9255  
VDW       = -1310.9255    QQ        = 0.0000        Bond      = 0.0000      
BondAngle = 0.0000        Torsion   = 0.0000        Tether    = 0.0000      
VIRIAL 
Total     = 701.7831      Constraint= 0.0000      
VDW       = 701.7831      QQ        = 0.0000        Bond      = 0.0000      
BondAngle = 0.0000        Torsion   = 0.0000        Tether    = 0.0000      

--------------------------------------------------------------------------------

Step 4500	 Instantaneous Values
System
Temperature(K) = 240.5000    
Pressure(kbar) = 12.2041     
ConservedQty   = 243.2373    
ENERGY 
Total     = 244.8588      Kinetic   = 1532.7240     Potential = -1287.8652  
VDW       = -1287.8652    QQ        = 0.0000        Bond      = 0.0000      
BondAngle = 0.0000        Torsion   = 0.0000        Tether    = 0.0000      
VIRIAL 
Total     = 204.8857      Constraint= 0.0000      
VDW       = 204.8857      QQ        = 0.0000        Bond      = 0.0000      
BondAngle = 0.0000        Torsion   = 0.0000        Tether    = 0.0000      

--------------------------------------------------------------------------------

Step 4600	 Instantaneous Values
System
Temperature(K) = 240.5000    
Pressure(kbar) = 11.5524     
ConservedQty   = 240.8715    
ENERGY 
Total     = 243.1277      Kinetic   = 1532.7240     Potential = -1289.5963  
VDW       = -1289.5963    QQ        = 0.0000        Bond      = 0.0000      
BondAngle = 0.0000        Torsion   = 0.0000        Tether    = 0.0000      
VIRIAL 
Total     = 357.6435      Constraint= 0.0000      
VDW       = 357.6435      QQ        = 0.0000        Bond      = 0.0000      
BondAngle = 0.0000        Torsion   = 0.0000        Tether    = 0.0000      

--------------------------------------------------------------------------------

Step 4700	 Instantaneous Values
System
Temperature(K) = 240.5000    
Pressure(kbar) = 12.0800     
ConservedQty   = 248.5415    
ENERGY 
Total     = 249.8585      Kinetic   = 1532.7240     Potential = -1282.8655  
VDW       = -1282.8655    QQ        = 0.0000        Bond      = 0.0000      
BondAngle = 0.0000        Torsion   = 0.0000        Tether    = 0.0000      
VIRIAL 
Total     = 233.9838      Constraint= 0.0000      
VDW       = 233.9838      QQ        = 0.0000        Bond      = 0.0000      
BondAngle = 0.0000        Torsion   = 0.0000        Tether    = 0.0000      

--------------------------------------------------------------------------------

Step 4800	 Instantaneous Values
System
Temperature(K) = 240.5000    
Pressure(kbar) = 9.7852      
ConservedQty   = 227.2960    
ENERGY 
Total     = 226.3725      Kinetic   = 1532.7240     Potential = -1306.3515  
VDW       = -1306.3515    QQ        = 0.0000        Bond      = 0.0000      
BondAngle = 0.0000        Torsion   = 0.0000        Tether    = 0.0000      
VIRIAL 
Total     = 771.8626      Constraint= 0.0000      
VDW       = 771.8626      QQ        = 0.0000        Bond      = 0.0000      
BondAngle = 0.0000        Torsion   = 0.0000        Tether    = 0.0000      

--------------------------------------------------------------------------------

Step 4900	 Instantaneous Values
System
Temperature(K) = 240.5000    
Pressure(kbar) = 14.6271     
ConservedQty   = 280.3554    
ENERGY 
Total     = 282.2967      Kinetic   = 1532.7240     Potential = -1250.4273  
VDW       = -1250.4273    QQ        = 0.0000        Bond      = 0.0000      
BondAngle = 0.0000        Torsion   = 0.0000        Tether    = 0.0000      
VIRIAL 
Total     = -363.0498     Constraint= 0.0000      
VDW       = -363.0498     QQ        = 0.0000        Bond      = 0.0000      
BondAngle = 0.0000        Torsion   = 0.0000        Tether    = 0.0000      

--------------------------------------------------------------------------------

Step 5000	 Instantaneous Values
System
Temperature(K) = 240.5000    
Pressure(kbar) = 13.7076     
ConservedQty   = 275.7964    
ENERGY 
Total     = 276.2840      Kinetic   = 1532.7240     Potential = -1256.4400  
VDW       = -1256.4400    QQ        = 0.0000        Bond      = 0.0000      
BondAngle = 0.0000        Torsion   = 0.0000        Tether    = 0.0000      
VIRIAL 
Total     = -147.5238     Constraint= 0.0000      
VDW       = -147.5238     QQ        = 0.0000        Bond      = 0.0000      
BondAngle = 0.0000        Torsion   = 0.0000        Tether    = 0.0000      

--------------------------------------------------------------------------------

Step 5100	 Instantaneous Values
System
Temperature(K) = 240.5000    
Pressure(kbar) = 11.9300     
ConservedQty   = 243.3005    
ENERGY 
Total     = 243.1674      Kinetic   = 1532.7240     Potential = -1289.5566  
VDW       = -1289.5566    QQ        = 0.0000        Bond      = 0.0000      
BondAngle = 0.0000        Torsion   = 0.0000        Tether    = 0.0000      
VIRIAL 
Total     = 269.1315      Constraint= 0.0000      
VDW       = 269.1315      QQ        = 0.0000        Bond      = 0.0000      
BondAngle = 0.0000        Torsion   = 0.0000        Tether    = 0.0000      

--------------------------------------------------------------------------------

Step 5200	 Instantaneous Values
System
Temperature(K) = 240.5000    
Pressure(kbar) = 10.8115     
ConservedQty   = 214.8037    
ENERGY 
Total     = 212.7780      Kinetic   = 1532.7240     Potential = -1319.9460  
VDW       = -1319.9460    QQ        = 0.0000        Bond      = 0.0000      
BondAngle = 0.0000        Torsion   = 0.0000        Tether    = 0.0000      
VIRIAL 
Total     = 531.3127      Constraint= 0.0000      
VDW       = 531.3127      QQ        = 0.0000        Bond      = 0.0000      
BondAngle = 0.0000        Torsion   = 0.0000        Tether    = 0.0000      

--------------------------------------------------------------------------------

Step 5300	 Instantaneous Values
System
Temperature(K) = 240.5000    
Pressure(kbar) = 11.5810     
ConservedQty   = 224.1273    
ENERGY 
Total     = 222.8108      Kinetic   = 1532.7240     Potential = -1309.9132  
VDW       = -1309.9132    QQ        = 0.0000        Bond      = 0.0000      
BondAngle = 0.0000        Torsion   = 0.0000        Tether    = 0.0000      
VIRIAL 
Total     = 350.9289      Constraint= 0.0000      
VDW       = 350.9289      QQ        = 0.0000        Bond      = 0.0000      
BondAngle = 0.0000        Torsion   = 0.0000        Tether    = 0.0000      

--------------------------------------------------------------------------------

Step 5400	 Instantaneous Values
System
Temperature(K) = 240.5000    
Pressure(kbar) = 12.3675     
ConservedQty   = 238.3249    
ENERGY 
Total     = 237.0264      Kinetic   = 1532.7240     Potential = -1295.6976  
VDW       = -1295.6976    QQ        = 0.0000        Bond      = 0.0000      
BondAngle = 0.0000        Torsion   = 0.0000        Tether    = 0.0000      
VIRIAL 
Total     = 166.5925      Constraint= 0.0000      
VDW       = 166.5925      QQ        = 0.0000        Bond      = 0.0000      
BondAngle = 0.0000        Torsion   = 0.0000        Tether    = 0.0000      

--------------------------------------------------------------------------------

Step 5500	 Instantaneous Values
System
Temperature(K) = 240.5000    
Pressure(kbar) = 12.5817     
ConservedQty   = 238.1964    
ENERGY 
Total     = 236.1487      Kinetic   = 1532.7240     Potential = -1296.5753  
VDW       = -1296.5753    QQ        = 0.0000        Bond      = 0.0000      
BondAngle = 0.0000        Torsion   = 0.0000        Tether    = 0.0000      
VIRIAL 
Total     = 116.3806      Constraint= 0.0000      
VDW       = 116.3806      QQ        = 0.0000        Bond      = 0.0000      
BondAngle = 0.0000        Torsion   = 0.0000        Tether    = 0.0000      

--------------------------------------------------------------------------------

Step 5600	 Instantaneous Values
System
Temperature(K) = 240.5000    
Pressure(kbar) = 13.1149     
ConservedQty   = 259.8371    
ENERGY 
Total     = 258.3589      Kinetic   = 1532.7240     Potential = -1274.3651  
VDW       = -1274.3651    QQ        = 0.0000        Bond      = 0.0000      
BondAngle = 0.0000        Torsion   = 0.0000        Tether    = 0.0000      
VIRIAL 
Total     = -8.6036       Constraint= 0.0000      
VDW       = -8.6036       QQ        = 0.0000        Bond      = 0.0000      
BondAngle = 0.0000        Torsion   = 0.0000        Tether    = 0.0000      

--------------------------------------------------------------------------------

Step 5700	 Instantaneous Values
System
Temperature(K) = 240.5000    
Pressure(kbar) = 10.6272     
ConservedQty   = 217.9577    
ENERGY 
Total     = 218.0363      Kinetic   = 1532.7240     Potential = -1314.6877  
VDW       = -1314.6877    QQ        = 0.0000        Bond      = 0.0000      
BondAngle = 0.0000        Torsion   = 0.0000        Tether    = 0.0000      
VIRIAL 
Total     = 574.4976      Constraint= 0.0000      
VDW       = 574.4976      QQ        = 0.0000        Bond      = 0.0000      
BondAngle = 0.0000        Torsion   = 0.0000        Tether    = 0.0000      

--------------------------------------------------------------------------------

Step 5800	 Instantaneous Values
System
Temperature(K) = 240.5000    
Pressure(kbar) = 11.2172     
ConservedQty   = 237.6209    
ENERGY 
Total     = 236.8583      Kinetic   = 1532.7240     Potential = -1295.8657  
VDW       = -1295.8657    QQ        = 0.0000        Bond      = 0.0000      
BondAngle = 0.0000        Torsion   = 0.0000        Tether    = 0.0000      
VIRIAL 
Total     = 436.2095      Constraint= 0.0000      
VDW       = 436.2095      QQ        = 0.0000        Bond      = 0.0000      
BondAngle = 0.0000        Torsion   = 0.0000        Tether    = 0.0000      

--------------------------------------------------------------------------------

Step 5900	 Instantaneous Values
System
Temperature(K) = 240.5000    
Pressure(kbar) = 9.9083      
ConservedQty   = 219.7341    
ENERGY 
Total     = 217.3054      Kinetic   = 1532.7240     Potential = -1315.4186  
VDW       = -1315.4186    QQ        = 0.0000        Bond      = 0.0000      
BondAngle = 0.0000        Torsion   = 0.0000        Tether    = 0.0000      
VIRIAL 
Total     = 743.0075      Constraint= 0.0000      
VDW       = 743.0075      QQ        = 0.0000        Bond      = 0.0000      
BondAngle = 0.0000        Torsion   = 0.0000        Tether    = 0.0000      

--------------------------------------------------------------------------------

Step 6000	 Instantaneous Values
System
Temperature(K) = 240.5000    
Pressure(kbar) = 12.3707     
ConservedQty   = 250.6822    
ENERGY 
Total     = 248.2836      Kinetic   = 1532.7240     Potential = -1284.4404  
VDW       = -1284.4404    QQ        = 0.0000        Bond      = 0.0000      
BondAngle = 0.0000        Torsion   = 0.0000        Tether    = 0.0000      
VIRIAL 
Total     = 165.8410      Constraint= 0.0000      
VDW       = 165.8410      QQ        = 0.0000        Bond      = 0.0000      
BondAngle = 0.0000        Torsion   = 0.0000        Tether    = 0.0000      

--------------------------------------------------------------------------------

Step 6100	 Instantaneous Values
System
Temperature(K) = 240.5000    
Pressure(kbar) = 9.9379      
ConservedQty   = 215.4310    
ENERGY 
Total     = 211.4029      Kinetic   = 1532.7240     Potential = -1321.3211  
VDW       = -1321.3211    QQ        = 0.0000        Bond      = 0.0000      
BondAngle = 0.0000        Torsion   = 0.0000        Tether    = 0.0000      
VIRIAL 
Total     = 736.0653      Constraint= 0.0000      
VDW       = 736.0653      QQ        = 0.0000        Bond      = 0.0000      
BondAngle = 0.0000        Torsion   = 0.0000        Tether    = 0.0000      

--------------------------------------------------------------------------------

Step 6200	 Instantaneous Values
System
Temperature(K) = 240.5000    
Pressure(kbar) = 13.5772     
ConservedQty   = 293.4766    
ENERGY 
Total     = 291.1833      Kinetic   = 1532.7240     Potential = -1241.5407  
VDW       = -1241.5407    QQ        = 0.0000        Bond      = 0.0000      
BondAngle = 0.0000        Torsion   = 0.0000        Tether    = 0.0000      
VIRIAL 
Total     = -116.9664     Constraint= 0.0000      
VDW       = -116.9664     QQ        = 0.0000        Bond      = 0.0000      
BondAngle = 0.0000        Torsion   = 0.0000        Tether    = 0.0000      

--------------------------------------------------------------------------------

Step 6300	 Instantaneous Values
System
Temperature(K) = 240.5000    
Pressure(kbar) = 9.2459      
ConservedQty   = 236.0118    
ENERGY 
Total     = 233.3378      Kinetic   = 1532.7240     Potential = -1299.3862  
VDW       = -1299.3862    QQ        = 0.0000        Bond      = 0.0000      
BondAngle = 0.0000        Torsion   = 0.0000        Tether    = 0.0000      
VIRIAL 
Total     = 898.2824      Constraint= 0.0000      
VDW       = 898.2824      QQ        = 0.0000        Bond      = 0.0000      
BondAngle = 0.0000        Torsion   = 0.0000        Tether    = 0.0000      

--------------------------------------------------------------------------------

Step 6400	 Instantaneous Values
System
Temperature(K) = 240.5000    
Pressure(kbar) = 10.0588     
ConservedQty   = 250.1825    
ENERGY 
Total     = 246.6013      Kinetic   = 1532.7240     Potential = -1286.1227  
VDW       = -1286.1227    QQ        = 0.0000        Bond      = 0.0000      
BondAngle = 0.0000        Torsion   = 0.0000        Tether    = 0.0000      
VIRIAL 
Total     = 707.7327      Constraint= 0.0000      
VDW       = 707.7327      QQ        = 0.0000        Bond      = 0.0000      
BondAngle = 0.0000        Torsion   = 0.0000        Tether    = 0.0000      

--------------------------------------------------------------------------------

Step 6500	 Instantaneous Values
System
Temperature(K) = 240.5000    
Pressure(kbar) = 9.1328      
ConservedQty   = 206.0250    
ENERGY 
Total     = 200.9937      Kinetic   = 1532.7240     Potential = -1331.7303  
VDW       = -1331.7303    QQ        = 0.0000        Bond      = 0.0000      
BondAngle = 0.0000        Torsion   = 0.0000        Tether    = 0.0000      
VIRIAL 
Total     = 924.7889      Constraint= 0.0000      
VDW       = 924.7889      QQ        = 0.0000        Bond      = 0.0000      
BondAngle = 0.0000        Torsion   = 0.0000        Tether    = 0.0000      

--------------------------------------------------------------------------------

Step 6600	 Instantaneous Values
System
Temperature(K) = 240.5000    
Pressure(kbar) = 9.8284      
ConservedQty   = 209.6512    
ENERGY 
Total     = 204.0901      Kinetic   = 1532.7240     Potential = -1328.6339  
VDW       = -1328.6339    QQ        = 0.0000        Bond      = 0.0000      
BondAngle = 0.0000        Torsion   = 0.0000        Tether    = 0.0000      
VIRIAL 
Total     = 761.7397      Constraint= 0.0000      
VDW       = 761.7397      QQ        = 0.0000        Bond      = 0.0000      
BondAngle = 0.0000        Torsion   = 0.0000        Tether    = 0.0000      

--------------------------------------------------------------------------------

Step 6700	 Instantaneous Values
System
Temperature(K) = 240.5000    
Pressure(kbar) = 10.7371     
ConservedQty   = 262.0442    
ENERGY 
Total     = 257.9936      Kinetic   = 1532.7240     Potential = -1274.7304  
VDW       = -1274.7304    QQ        = 0.0000        Bond      = 0.0000      
BondAngle = 0.0000        Torsion   = 0.0000        Tether    = 0.0000      
VIRIAL 
Total     = 548.7364      Constraint= 0.0000      
VDW       = 548.7364      QQ        = 0.0000        Bond      = 0.0000      
BondAngle = 0.0000        Torsion   = 0.0000        Tether    = 0.0000      

--------------------------------------------------------------------------------

Step 6800	 Instantaneous Values
System
Temperature(K) = 240.5000    
Pressure(kbar) = 13.4789     
ConservedQty   = 254.0025    
ENERGY 
Total     = 248.8740      Kinetic   = 1532.7240     Potential = -1283.8500  
VDW       = -1283.8500    QQ        = 0.0000        Bond      = 0.0000      
BondAngle = 0.0000        Torsion   = 0.0000        Tether    = 0.0000      
VIRIAL 
Total     = -93.9241      Constraint= 0.0000      
VDW       = -93.9241      QQ        = 0.0000        Bond      = 0.0000      
BondAngle = 0.0000        Torsion   = 0.0000        Tether    = 0.0000      

--------------------------------------------------------------------------------

Step 6900	 Instantaneous Values
System
Temperature(K) = 240.5000    
Pressure(kbar) = 10.2264     
ConservedQty   = 247.8094    
ENERGY 
Total     = 243.7774      Kinetic   = 1532.7240     Potential = -1288.9466  
VDW       = -1288.9466    QQ        = 0.0000        Bond      = 0.0000      
BondAngle = 0.0000        Torsion   = 0.0000        Tether    = 0.0000      
VIRIAL 
Total     = 668.4571      Constraint= 0.0000      
VDW       = 668.4571      QQ        = 0.0000        Bond      = 0.0000      
BondAngle = 0.0000        Torsion   = 0.0000        Tether    = 0.0000      

--------------------------------------------------------------------------------

Step 7000	 Instantaneous Values
System
Temperature(K) = 240.5000    
Pressure(kbar) = 8.1521      
ConservedQty   = 209.6856    
ENERGY 
Total     = 204.0698      Kinetic   = 1532.7240     Potential = -1328.6542  
VDW       = -1328.6542    QQ        = 0.0000        Bond      = 0.0000      
BondAngle = 0.0000        Torsion   = 0.0000        Tether    = 0.0000      
VIRIAL 
Total     = 1154.6445     Constraint= 0.0000      
VDW       = 1154.6445     QQ        = 0.0000        Bond      = 0.0000      
BondAngle = 0.0000        Torsion   = 0.0000        Tether    = 0.0000      

--------------------------------------------------------------------------------

Step 7100	 Instantaneous Values
System
Temperature(K) = 240.5000    
Pressure(kbar) = 11.3782     
ConservedQty   = 212.5147    
ENERGY 
Total     = 207.1473      Kinetic   = 1532.7240     Potential = -1325.5767  
VDW       = -1325.5767    QQ        = 0.0000        Bond      = 0.0000      
BondAngle = 0.0000        Torsion   = 0.0000        Tether    = 0.0000      
VIRIAL 
Total     = 398.4693      Constraint= 0.0000      
VDW       = 398.4693      QQ        = 0.0000        Bond      = 0.0000      
BondAngle = 0.0000        Torsion   = 0.0000        Tether    = 0.0000      

--------------------------------------------------------------------------------

Step 7200	 Instantaneous Values
System
Temperature(K) = 240.5000    
Pressure(kbar) = 11.7128     
ConservedQty   = 211.5230    
ENERGY 
Total     = 204.3117      Kinetic   = 1532.7240     Potential = -1328.4123  
VDW       = -1328.4123    QQ        = 0.0000        Bond      = 0.0000      
BondAngle = 0.0000        Torsion   = 0.0000        Tether    = 0.0000      
VIRIAL 
Total     = 320.0571      Constraint= 0.0000      
VDW       = 320.0571      QQ        = 0.0000        Bond      = 0.0000      
BondAngle = 0.0000        Torsion   = 0.0000        Tether    = 0.0000      

--------------------------------------------------------------------------------

Step 7300	 Instantaneous Values
System
Temperature(K) = 240.5000    
Pressure(kbar) = 13.2964     
ConservedQty   = 251.7848    
ENERGY 
Total     = 245.5284      Kinetic   = 1532.7240     Potential = -1287.1956  
VDW       = -1287.1956    QQ        = 0.0000        Bond      = 0.0000      
BondAngle = 0.0000        Torsion   = 0.0000        Tether    = 0.0000      
VIRIAL 
Total     = -51.1486      Constraint= 0.0000      
VDW       = -51.1486      QQ        = 0.0000        Bond      = 0.0000      
BondAngle = 0.0000        Torsion   = 0.0000        Tether    = 0.0000      

--------------------------------------------------------------------------------

Step 7400	 Instantaneous Values
System
Temperature(K) = 240.5000    
Pressure(kbar) = 12.8186     
ConservedQty   = 248.1189    
ENERGY 
Total     = 241.6752      Kinetic   = 1532.7240     Potential = -1291.0488  
VDW       = -1291.0488    QQ        = 0.0000        Bond      = 0.0000      
BondAngle = 0.0000        Torsion   = 0.0000        Tether    = 0.0000      
VIRIAL 
Total     = 60.8529       Constraint= 0.0000      
VDW       = 60.8529       QQ        = 0.0000        Bond      = 0.0000      
BondAngle = 0.0000        Torsion   = 0.0000        Tether    = 0.0000      

--------------------------------------------------------------------------------

Step 7500	 Instantaneous Values
System
Temperature(K) = 240.5000    
Pressure(kbar) = 9.7205      
ConservedQty   = 222.8278    
ENERGY 
Total     = 217.1357      Kinetic   = 1532.7240     Potential = -1315.5883  
VDW       = -1315.5883    QQ        = 0.0000        Bond      = 0.0000      
BondAngle = 0.0000        Torsion   = 0.0000        Tether    = 0.0000      
VIRIAL 
Total     = 787.0316      Constraint= 0.0000      
VDW       = 787.0316      QQ        = 0.0000        Bond      = 0.0000      
BondAngle = 0.0000        Torsion   = 0.0000        Tether    = 0.0000      

--------------------------------------------------------------------------------

Step 7600	 Instantaneous Values
System
Temperature(K) = 240.5000    
Pressure(kbar) = 8.3423      
ConservedQty   = 217.9163    
ENERGY 
Total     = 210.9857      Kinetic   = 1532.7240     Potential = -1321.7383  
VDW       = -1321.7383    QQ        = 0.0000        Bond      = 0.0000      
BondAngle = 0.0000        Torsion   = 0.0000        Tether    = 0.0000      
VIRIAL 
Total     = 1110.0629     Constraint= 0.0000      
VDW       = 1110.0629     QQ        = 0.0000        Bond      = 0.0000      
BondAngle = 0.0000        Torsion   = 0.0000        Tether    = 0.0000      

--------------------------------------------------------------------------------

Step 7700	 Instantaneous Values
System
Temperature(K) = 240.5000    
Pressure(kbar) = 10.9367     
ConservedQty   = 243.6449    
ENERGY 
Total     = 237.6754      Kinetic   = 1532.7240     Potential = -1295.0486  
VDW       = -1295.0486    QQ        = 0.0000        Bond      = 0.0000      
BondAngle = 0.0000        Torsion   = 0.0000        Tether    = 0.0000      
VIRIAL 
Total     = 501.9704      Constraint= 0.0000      
VDW       = 501.9704      QQ        = 0.0000        Bond      = 0.0000      
BondAngle = 0.0000        Torsion   = 0.0000        Tether    = 0.0000      

--------------------------------------------------------------------------------

Step 7800	 Instantaneous Values
System
Temperature(K) = 240.5000    
Pressure(kbar) = 12.8539     
ConservedQty   = 273.3113    
ENERGY 
Total     = 266.3441      Kinetic   = 1532.7240     Potential = -1266.3799  
VDW       = -1266.3799    QQ        = 0.0000        Bond      = 0.0000      
BondAngle = 0.0000        Torsion   = 0.0000        Tether    = 0.0000      
VIRIAL 
Total     = 52.5861       Constraint= 0.0000      
VDW       = 52.5861       QQ        = 0.0000        Bond      = 0.0000      
BondAngle = 0.0000        Torsion   = 0.0000        Tether    = 0.0000      

--------------------------------------------------------------------------------

Step 7900	 Instantaneous Values
System
Temperature(K) = 240.5000    
Pressure(kbar) = 12.3588     
ConservedQty   = 252.1628    
ENERGY 
Total     = 245.3267      Kinetic   = 1532.7240     Potential = -1287.3973  
VDW       = -1287.3973    QQ        = 0.0000        Bond      = 0.0000      
BondAngle = 0.0000        Torsion   = 0.0000        Tether    = 0.0000      
VIRIAL 
Total     = 168.6256      Constraint= 0.0000      
VDW       = 168.6256      QQ        = 0.0000        Bond      = 0.0000      
BondAngle = 0.0000        Torsion   = 0.0000        Tether    = 0.0000      

--------------------------------------------------------------------------------

Step 8000	 Instantaneous Values
System
Temperature(K) = 240.5000    
Pressure(kbar) = 11.2089     
ConservedQty   = 231.4358    
ENERGY 
Total     = 224.8844      Kinetic   = 1532.7240     Potential = -1307.8396  
VDW       = -1307.8396    QQ        = 0.0000        Bond      = 0.0000      
BondAngle = 0.0000        Torsion   = 0.0000        Tether    = 0.0000      
VIRIAL 
Total     = 438.1638      Constraint= 0.0000      
VDW       = 438.1638      QQ        = 0.0000        Bond      = 0.0000      
BondAngle = 0.0000        Torsion   = 0.0000        Tether    = 0.0000      

--------------------------------------------------------------------------------

Step 8100	 Instantaneous Values
System
Temperature(K) = 240.5000    
Pressure(kbar) = 14.0284     
ConservedQty   = 268.4674    
ENERGY 
Total     = 264.3060      Kinetic   = 1532.7240     Potential = -1268.4180  
VDW       = -1268.4180    QQ        = 0.0000        Bond      = 0.0000      
BondAngle = 0.0000        Torsion   = 0.0000        Tether    = 0.0000      
VIRIAL 
Total     = -222.7092     Constraint= 0.0000      
VDW       = -222.7092     QQ        = 0.0000        Bond      = 0.0000      
BondAngle = 0.0000        Torsion   = 0.0000        Tether    = 0.0000      

--------------------------------------------------------------------------------

Step 8200	 Instantaneous Values
System
Temperature(K) = 240.5000    
Pressure(kbar) = 11.8120     
ConservedQty   = 232.4209    
ENERGY 
Total     = 227.0985      Kinetic   = 1532.7240     Potential = -1305.6255  
VDW       = -1305.6255    QQ        = 0.0000        Bond      = 0.0000      
BondAngle = 0.0000        Torsion   = 0.0000        Tether    = 0.0000      
VIRIAL 
Total     = 296.7949      Constraint= 0.0000      
VDW       = 296.7949      QQ        = 0.0000        Bond      = 0.0000      
BondAngle = 0.0000        Torsion   = 0.0000        Tether    = 0.0000      

--------------------------------------------------------------------------------

Step 8300	 Instantaneous Values
System
Temperature(K) = 240.5000    
Pressure(kbar) = 11.3503     
ConservedQty   = 239.6307    
ENERGY 
Total     = 232.9226      Kinetic   = 1532.7240     Potential = -1299.8014  
VDW       = -1299.8014    QQ        = 0.0000        Bond      = 0.0000      
BondAngle = 0.0000        Torsion   = 0.0000        Tether    = 0.0000      
VIRIAL 
Total     = 405.0086      Constraint= 0.0000      
VDW       = 405.0086      QQ        = 0.0000        Bond      = 0.0000      
BondAngle = 0.0000        Torsion   = 0.0000        Tether    = 0.0000      

--------------------------------------------------------------------------------

Step 8400	 Instantaneous Values
System
Temperature(K) = 240.5000    
Pressure(kbar) = 14.7213     
ConservedQty   = 261.9675    
ENERGY 
Total     = 257.5767      Kinetic   = 1532.7240     Potential = -1275.1473  
VDW       = -1275.1473    QQ        = 0.0000        Bond      = 0.0000      
BondAngle = 0.0000        Torsion   = 0.0000        Tether    = 0.0000      
VIRIAL 
Total     = -385.1239     Constraint= 0.0000      
VDW       = -385.1239     QQ        = 0.0000        Bond      = 0.0000      
BondAngle = 0.0000        Torsion   = 0.0000        Tether    = 0.0000      

--------------------------------------------------------------------------------

Step 8500	 Instantaneous Values
System
Temperature(K) = 240.5000    
Pressure(kbar) = 11.9806     
ConservedQty   = 244.4876    
ENERGY 
Total     = 239.5695      Kinetic   = 1532.7240     Potential = -1293.1545  
VDW       = -1293.1545    QQ        = 0.0000        Bond      = 0.0000      
BondAngle = 0.0000        Torsion   = 0.0000        Tether    = 0.0000      
VIRIAL 
Total     = 257.2697      Constraint= 0.0000      
VDW       = 257.2697      QQ        = 0.0000        Bond      = 0.0000      
BondAngle = 0.0000        Torsion   = 0.0000        Tether    = 0.0000      

--------------------------------------------------------------------------------

Step 8600	 Instantaneous Values
System
Temperature(K) = 240.5000    
Pressure(kbar) = 15.2277     
ConservedQty   = 288.4170    
ENERGY 
Total     = 284.0665      Kinetic   = 1532.7240     Potential = -1248.6575  
VDW       = -1248.6575    QQ        = 0.0000        Bond      = 0.0000      
BondAngle = 0.0000        Torsion   = 0.0000        Tether    = 0.0000      
VIRIAL 
Total     = -503.8280     Constraint= 0.0000      
VDW       = -503.8280     QQ        = 0.0000        Bond      = 0.0000      
BondAngle = 0.0000        Torsion   = 0.0000        Tether    = 0.0000      

--------------------------------------------------------------------------------

Step 8700	 Instantaneous Values
System
Temperature(K) = 240.5000    
Pressure(kbar) = 12.3110     
ConservedQty   = 244.6618    
ENERGY 
Total     = 239.6806      Kinetic   = 1532.7240     Potential = -1293.0434  
VDW       = -1293.0434    QQ        = 0.0000        Bond      = 0.0000      
BondAngle = 0.0000        Torsion   = 0.0000        Tether    = 0.0000      
VIRIAL 
Total     = 179.8313      Constraint= 0.0000      
VDW       = 179.8313      QQ        = 0.0000        Bond      = 0.0000      
BondAngle = 0.0000        Torsion   = 0.0000        Tether    = 0.0000      

--------------------------------------------------------------------------------

Step 8800	 Instantaneous Values
System
Temperature(K) = 240.5000    
Pressure(kbar) = 11.3913     
ConservedQty   = 249.7627    
ENERGY 
Total     = 245.0192      Kinetic   = 1532.7240     Potential = -1287.7048  
VDW       = -1287.7048    QQ        = 0.0000        Bond      = 0.0000      
BondAngle = 0.0000        Torsion   = 0.0000        Tether    = 0.0000      
VIRIAL 
Total     = 395.4054      Constraint= 0.0000      
VDW       = 395.4054      QQ        = 0.0000        Bond      = 0.0000      
BondAngle = 0.0000        Torsion   = 0.0000        Tether    = 0.0000      

--------------------------------------------------------------------------------

Step 8900	 Instantaneous Values
System
Temperature(K) = 240.5000    
Pressure(kbar) = 11.0692     
ConservedQty   = 257.5507    
ENERGY 
Total     = 252.3577      Kinetic   = 1532.7240     Potential = -1280.3663  
VDW       = -1280.3663    QQ        = 0.0000        Bond      = 0.0000      
BondAngle = 0.0000        Torsion   = 0.0000        Tether    = 0.0000      
VIRIAL 
Total     = 470.8910      Constraint= 0.0000      
VDW       = 470.8910      QQ        = 0.0000        Bond      = 0.0000      
BondAngle = 0.0000        Torsion   = 0.0000        Tether    = 0.0000      

--------------------------------------------------------------------------------

Step 9000	 Instantaneous Values
System
Temperature(K) = 240.5000    
Pressure(kbar) = 13.2978     
ConservedQty   = 254.8427    
ENERGY 
Total     = 249.5673      Kinetic   = 1532.7240     Potential = -1283.1567  
VDW       = -1283.1567    QQ        = 0.0000        Bond      = 0.0000      
BondAngle = 0.0000        Torsion   = 0.0000        Tether    = 0.0000      
VIRIAL 
Total     = -51.4734      Constraint= 0.0000      
VDW       = -51.4734      QQ        = 0.0000        Bond      = 0.0000      
BondAngle = 0.0000        Torsion   = 0.0000        Tether    = 0.0000      

--------------------------------------------------------------------------------

Step 9100	 Instantaneous Values
System
Temperature(K) = 240.5000    
Pressure(kbar) = 11.1395     
ConservedQty   = 231.3112    
ENERGY 
Total     = 224.3114      Kinetic   = 1532.7240     Potential = -1308.4126  
VDW       = -1308.4126    QQ        = 0.0000        Bond      = 0.0000      
BondAngle = 0.0000        Torsion   = 0.0000        Tether    = 0.0000      
VIRIAL 
Total     = 454.4261      Constraint= 0.0000      
VDW       = 454.4261      QQ        = 0.0000        Bond      = 0.0000      
BondAngle = 0.0000        Torsion   = 0.0000        Tether    = 0.0000      

--------------------------------------------------------------------------------

Step 9200	 Instantaneous Values
System
Temperature(K) = 240.5000    
Pressure(kbar) = 13.6447     
ConservedQty   = 248.6190    
ENERGY 
Total     = 244.0212      Kinetic   = 1532.7240     Potential = -1288.7028  
VDW       = -1288.7028    QQ        = 0.0000        Bond      = 0.0000      
BondAngle = 0.0000        Torsion   = 0.0000        Tether    = 0.0000      
VIRIAL 
Total     = -132.7810     Constraint= 0.0000      
VDW       = -132.7810     QQ        = 0.0000        Bond      = 0.0000      
BondAngle = 0.0000        Torsion   = 0.0000        Tether    = 0.0000      

--------------------------------------------------------------------------------

Step 9300	 Instantaneous Values
System
Temperature(K) = 240.5000    
Pressure(kbar) = 11.4957     
ConservedQty   = 225.0049    
ENERGY 
Total     = 219.8198      Kinetic   = 1532.7240     Potential = -1312.9042  
VDW       = -1312.9042    QQ        = 0.0000        Bond      = 0.0000      
BondAngle = 0.0000        Torsion   = 0.0000        Tether    = 0.0000      
VIRIAL 
Total     = 370.9410      Constraint= 0.0000      
VDW       = 370.9410      QQ        = 0.0000        Bond      = 0.0000      
BondAngle = 0.0000        Torsion   = 0.0000        Tether    = 0.0000      

--------------------------------------------------------------------------------

Step 9400	 Instantaneous Values
System
Temperature(K) = 240.5000    
Pressure(kbar) = 12.4131     
ConservedQty   = 241.7649    
ENERGY 
Total     = 237.4668      Kinetic   = 1532.7240     Potential = -1295.2572  
VDW       = -1295.2572    QQ        = 0.0000        Bond      = 0.0000      
BondAngle = 0.0000        Torsion   = 0.0000        Tether    = 0.0000      
VIRIAL 
Total     = 155.9005      Constraint= 0.0000      
VDW       = 155.9005      QQ        = 0.0000        Bond      = 0.0000      
BondAngle = 0.0000        Torsion   = 0.0000        Tether    = 0.0000      

--------------------------------------------------------------------------------

Step 9500	 Instantaneous Values
System
Temperature(K) = 240.5000    
Pressure(kbar) = 11.2730     
ConservedQty   = 234.2751    
ENERGY 
Total     = 230.2837      Kinetic   = 1532.7240     Potential = -1302.4403  
VDW       = -1302.4403    QQ        = 0.0000        Bond      = 0.0000      
BondAngle = 0.0000        Torsion   = 0.0000        Tether    = 0.0000      
VIRIAL 
Total     = 423.1318      Constraint= 0.0000      
VDW       = 423.1318      QQ        = 0.0000        Bond      = 0.0000      
BondAngle = 0.0000        Torsion   = 0.0000        Tether    = 0.0000      

--------------------------------------------------------------------------------

Step 9600	 Instantaneous Values
System
Temperature(K) = 240.5000    
Pressure(kbar) = 10.2877     
ConservedQty   = 231.8680    
ENERGY 
Total     = 229.1468      Kinetic   = 1532.7240     Potential = -1303.5772  
VDW       = -1303.5772    QQ        = 0.0000        Bond      = 0.0000      
BondAngle = 0.0000        Torsion   = 0.0000        Tether    = 0.0000      
VIRIAL 
Total     = 654.0774      Constraint= 0.0000      
VDW       = 654.0774      QQ        = 0.0000        Bond      = 0.0000      
BondAngle = 0.0000        Torsion   = 0.0000        Tether    = 0.0000      

--------------------------------------------------------------------------------

Step 9700	 Instantaneous Values
System
Temperature(K) = 240.5000    
Pressure(kbar) = 9.6960      
ConservedQty   = 219.3021    
ENERGY 
Total     = 215.7664      Kinetic   = 1532.7240     Potential = -1316.9576  
VDW       = -1316.9576    QQ        = 0.0000        Bond      = 0.0000      
BondAngle = 0.0000        Torsion   = 0.0000        Tether    = 0.0000      
VIRIAL 
Total     = 792.7659      Constraint= 0.0000      
VDW       = 792.7659      QQ        = 0.0000        Bond      = 0.0000      
BondAngle = 0.0000        Torsion   = 0.0000        Tether    = 0.0000      

--------------------------------------------------------------------------------

Step 9800	 Instantaneous Values
System
Temperature(K) = 240.5000    
Pressure(kbar) = 12.7514     
ConservedQty   = 248.5534    
ENERGY 
Total     = 247.0902      Kinetic   = 1532.7240     Potential = -1285.6339  
VDW       = -1285.6339    QQ        = 0.0000        Bond      = 0.0000      
BondAngle = 0.0000        Torsion   = 0.0000        Tether    = 0.0000      
VIRIAL 
Total     = 76.6158       Constraint= 0.0000      
VDW       = 76.6158       QQ        = 0.0000        Bond      = 0.0000      
BondAngle = 0.0000        Torsion   = 0.0000        Tether    = 0.0000      

--------------------------------------------------------------------------------

Step 9900	 Instantaneous Values
System
Temperature(K) = 240.5000    
Pressure(kbar) = 10.7768     
ConservedQty   = 244.4131    
ENERGY 
Total     = 243.0863      Kinetic   = 1532.7240     Potential = -1289.6377  
VDW       = -1289.6377    QQ        = 0.0000        Bond      = 0.0000      
BondAngle = 0.0000        Torsion   = 0.0000        Tether    = 0.0000      
VIRIAL 
Total     = 539.4307      Constraint= 0.0000      
VDW       = 539.4307      QQ        = 0.0000        Bond      = 0.0000      
BondAngle = 0.0000        Torsion   = 0.0000        Tether    = 0.0000      

--------------------------------------------------------------------------------

Step 10000	 Instantaneous Values
System
Temperature(K) = 240.5000    
Pressure(kbar) = 12.9109     
ConservedQty   = 221.2302    
ENERGY 
Total     = 220.1239      Kinetic   = 1532.7240     Potential = -1312.6001  
VDW       = -1312.6001    QQ        = 0.0000        Bond      = 0.0000      
BondAngle = 0.0000        Torsion   = 0.0000        Tether    = 0.0000      
VIRIAL 
Total     = 39.2313       Constraint= 0.0000      
VDW       = 39.2313       QQ        = 0.0000        Bond      = 0.0000      
BondAngle = 0.0000        Torsion   = 0.0000        Tether    = 0.0000      

--------------------------------------------------------------------------------

Step 10100	 Instantaneous Values
System
Temperature(K) = 244.4796    
Pressure(kbar) = 9.8428      
ConservedQty   = 220.3451    
ENERGY 
Total     = 217.1274      Kinetic   = 1558.0861     Potential = -1340.9586  
VDW       = -1340.9586    QQ        = 0.0000        Bond      = 0.0000      
BondAngle = 0.0000        Torsion   = 0.0000        Tether    = 0.0000      
VIRIAL 
Total     = 809.0775      Constraint= 0.0000      
VDW       = 809.0775      QQ        = 0.0000        Bond      = 0.0000      
BondAngle = 0.0000        Torsion   = 0.0000        Tether    = 0.0000      

MeanSquaredDisplacement
Species1
Atom 1: 0.820687 
--------------------------------------------------------------------------------

Step 10200	 Instantaneous Values
System
Temperature(K) = 238.1305    
Pressure(kbar) = 10.7391     
ConservedQty   = 222.1025    
ENERGY 
Total     = 209.9224      Kinetic   = 1517.6233     Potential = -1307.7009  
VDW       = -1307.7009    QQ        = 0.0000        Bond      = 0.0000      
BondAngle = 0.0000        Torsion   = 0.0000        Tether    = 0.0000      
VIRIAL 
Total     = 518.0774      Constraint= 0.0000      
VDW       = 518.0774      QQ        = 0.0000        Bond      = 0.0000      
BondAngle = 0.0000        Torsion   = 0.0000        Tether    = 0.0000      

MeanSquaredDisplacement
Species1
Atom 1: 2.2404 
--------------------------------------------------------------------------------

Step 10300	 Instantaneous Values
System
Temperature(K) = 245.6516    
Pressure(kbar) = 10.2675     
ConservedQty   = 222.2518    
ENERGY 
Total     = 251.5099      Kinetic   = 1565.5555     Potential = -1314.0456  
VDW       = -1314.0456    QQ        = 0.0000        Bond      = 0.0000      
BondAngle = 0.0000        Torsion   = 0.0000        Tether    = 0.0000      
VIRIAL 
Total     = 724.4802      Constraint= 0.0000      
VDW       = 724.4802      QQ        = 0.0000        Bond      = 0.0000      
BondAngle = 0.0000        Torsion   = 0.0000        Tether    = 0.0000      

MeanSquaredDisplacement
Species1
Atom 1: 3.89634 
--------------------------------------------------------------------------------

Step 10400	 Instantaneous Values
System
Temperature(K) = 241.3643    
Pressure(kbar) = 10.8406     
ConservedQty   = 222.3546    
ENERGY 
Total     = 247.7385      Kinetic   = 1538.2325     Potential = -1290.4940  
VDW       = -1290.4940    QQ        = 0.0000        Bond      = 0.0000      
BondAngle = 0.0000        Torsion   = 0.0000        Tether    = 0.0000      
VIRIAL 
Total     = 535.5052      Constraint= 0.0000      
VDW       = 535.5052      QQ        = 0.0000        Bond      = 0.0000      
BondAngle = 0.0000        Torsion   = 0.0000        Tether    = 0.0000      

MeanSquaredDisplacement
Species1
Atom 1: 5.58294 
--------------------------------------------------------------------------------

Step 10500	 Instantaneous Values
System
Temperature(K) = 240.3581    
Pressure(kbar) = 14.2800     
ConservedQty   = 221.3249    
ENERGY 
Total     = 261.0212      Kinetic   = 1531.8194     Potential = -1270.7983  
VDW       = -1270.7983    QQ        = 0.0000        Bond      = 0.0000      
BondAngle = 0.0000        Torsion   = 0.0000        Tether    = 0.0000      
VIRIAL 
Total     = -283.5082     Constraint= 0.0000      
VDW       = -283.5082     QQ        = 0.0000        Bond      = 0.0000      
BondAngle = 0.0000        Torsion   = 0.0000        Tether    = 0.0000      

MeanSquaredDisplacement
Species1
Atom 1: 7.22884 
--------------------------------------------------------------------------------

Step 10600	 Instantaneous Values
System
Temperature(K) = 235.7900    
Pressure(kbar) = 8.8961      
ConservedQty   = 221.6778    
ENERGY 
Total     = 178.3891      Kinetic   = 1502.7069     Potential = -1324.3179  
VDW       = -1324.3179    QQ        = 0.0000        Bond      = 0.0000      
BondAngle = 0.0000        Torsion   = 0.0000        Tether    = 0.0000      
VIRIAL 
Total     = 920.2390      Constraint= 0.0000      
VDW       = 920.2390      QQ        = 0.0000        Bond      = 0.0000      
BondAngle = 0.0000        Torsion   = 0.0000        Tether    = 0.0000      

MeanSquaredDisplacement
Species1
Atom 1: 8.84655 
--------------------------------------------------------------------------------

Step 10700	 Instantaneous Values
System
Temperature(K) = 245.4617    
Pressure(kbar) = 12.7988     
ConservedQty   = 221.3084    
ENERGY 
Total     = 259.4288      Kinetic   = 1564.3453     Potential = -1304.9165  
VDW       = -1304.9165    QQ        = 0.0000        Bond      = 0.0000      
BondAngle = 0.0000        Torsion   = 0.0000        Tether    = 0.0000      
VIRIAL 
Total     = 128.7321      Constraint= 0.0000      
VDW       = 128.7321      QQ        = 0.0000        Bond      = 0.0000      
BondAngle = 0.0000        Torsion   = 0.0000        Tether    = 0.0000      

MeanSquaredDisplacement
Species1
Atom 1: 10.5148 
--------------------------------------------------------------------------------

Step 10800	 Instantaneous Values
System
Temperature(K) = 240.1618    
Pressure(kbar) = 10.3875     
ConservedQty   = 221.6779    
ENERGY 
Total     = 212.1421      Kinetic   = 1530.5686     Potential = -1318.4265  
VDW       = -1318.4265    QQ        = 0.0000        Bond      = 0.0000      
BondAngle = 0.0000        Torsion   = 0.0000        Tether    = 0.0000      
VIRIAL 
Total     = 626.3708      Constraint= 0.0000      
VDW       = 626.3708      QQ        = 0.0000        Bond      = 0.0000      
BondAngle = 0.0000        Torsion   = 0.0000        Tether    = 0.0000      

MeanSquaredDisplacement
Species1
Atom 1: 12.203 
--------------------------------------------------------------------------------

Step 10900	 Instantaneous Values
System
Temperature(K) = 251.0753    
Pressure(kbar) = 9.0799      
ConservedQty   = 223.2174    
ENERGY 
Total     = 278.3803      Kinetic   = 1600.1211     Potential = -1321.7408  
VDW       = -1321.7408    QQ        = 0.0000        Bond      = 0.0000      
BondAngle = 0.0000        Torsion   = 0.0000        Tether    = 0.0000      
VIRIAL 
Total     = 1071.9675     Constraint= 0.0000      
VDW       = 1071.9675     QQ        = 0.0000        Bond      = 0.0000      
BondAngle = 0.0000        Torsion   = 0.0000        Tether    = 0.0000      

MeanSquaredDisplacement
Species1
Atom 1: 13.8935 
--------------------------------------------------------------------------------

Step 11000	 Instantaneous Values
System
Temperature(K) = 232.2242    
Pressure(kbar) = 13.7834     
ConservedQty   = 222.2895    
ENERGY 
Total     = 218.2180      Kinetic   = 1479.9816     Potential = -1261.7636  
VDW       = -1261.7636    QQ        = 0.0000        Bond      = 0.0000      
BondAngle = 0.0000        Torsion   = 0.0000        Tether    = 0.0000      
VIRIAL 
Total     = -270.7827     Constraint= 0.0000      
VDW       = -270.7827     QQ        = 0.0000        Bond      = 0.0000      
BondAngle = 0.0000        Torsion   = 0.0000        Tether    = 0.0000      

MeanSquaredDisplacement
Species1
Atom 1: 15.5449 
--------------------------------------------------------------------------------

Step 11000	Averages
System
CELL
   A          B          C          Alpha      Beta       Gamma   
   10.8580    10.8580    10.8580    90.0000    90.0000    90.0000
Lattice vectors
   1.0858000000e+01    0.0000000000e+00    0.0000000000e+00
   6.1230317691e-38    1.0858000000e+01    0.0000000000e+00
   6.1230317691e-38    6.1230317691e-38    1.0858000000e+01
Cell Volume: 1280.12   
Cell Type: Cubic    PBCType: CUBIC

Temperature(K) = 241.4697    
Pressure(kbar) = 11.0916     
ConservedQty   = 221.8550    
ENERGY 
Total     = 233.3878      Kinetic   = 1538.9040     Potential = -1305.5163  
VDW       = -1305.5163    QQ        = 0.0000        Bond      = 0.0000      
BondAngle = 0.0000        Torsion   = 0.0000        Tether    = 0.0000      
VIRIAL 
Total     = 478.0159      Constraint= 0.0000      
VDW       = 478.0159      QQ        = 0.0000        Bond      = 0.0000      
BondAngle = 0.0000        Torsion   = 0.0000        Tether    = 0.0000      

--------------------------------------------------------------------------------

--------------------------------------------------------------------------------

Step 11100	 Instantaneous Values
System
Temperature(K) = 237.1884    
Pressure(kbar) = 11.1669     
ConservedQty   = 222.2158    
ENERGY 
Total     = 206.6411      Kinetic   = 1511.6188     Potential = -1304.9777  
VDW       = -1304.9777    QQ        = 0.0000        Bond      = 0.0000      
BondAngle = 0.0000        Torsion   = 0.0000        Tether    = 0.0000      
VIRIAL 
Total     = 405.7919      Constraint= 0.0000      
VDW       = 405.7919      QQ        = 0.0000        Bond      = 0.0000      
BondAngle = 0.0000        Torsion   = 0.0000        Tether    = 0.0000      

MeanSquaredDisplacement
Species1
Atom 1: 17.0637 
--------------------------------------------------------------------------------

Step 11200	 Instantaneous Values
System
Temperature(K) = 241.4099    
Pressure(kbar) = 12.7927     
ConservedQty   = 221.4654    
ENERGY 
Total     = 242.3730      Kinetic   = 1538.5231     Potential = -1296.1501  
VDW       = -1296.1501    QQ        = 0.0000        Bond      = 0.0000      
BondAngle = 0.0000        Torsion   = 0.0000        Tether    = 0.0000      
VIRIAL 
Total     = 78.5144       Constraint= 0.0000      
VDW       = 78.5144       QQ        = 0.0000        Bond      = 0.0000      
BondAngle = 0.0000        Torsion   = 0.0000        Tether    = 0.0000      

MeanSquaredDisplacement
Species1
Atom 1: 18.7057 
--------------------------------------------------------------------------------

Step 11300	 Instantaneous Values
System
Temperature(K) = 235.5108    
Pressure(kbar) = 10.2437     
ConservedQty   = 223.3898    
ENERGY 
Total     = 211.7604      Kinetic   = 1500.9275     Potential = -1289.1671  
VDW       = -1289.1671    QQ        = 0.0000        Bond      = 0.0000      
BondAngle = 0.0000        Torsion   = 0.0000        Tether    = 0.0000      
VIRIAL 
Total     = 600.7948      Constraint= 0.0000      
VDW       = 600.7948      QQ        = 0.0000        Bond      = 0.0000      
BondAngle = 0.0000        Torsion   = 0.0000        Tether    = 0.0000      

MeanSquaredDisplacement
Species1
Atom 1: 20.5673 
--------------------------------------------------------------------------------

Step 11400	 Instantaneous Values
System
Temperature(K) = 248.0569    
Pressure(kbar) = 12.7939     
ConservedQty   = 222.7321    
ENERGY 
Total     = 310.3269      Kinetic   = 1580.8846     Potential = -1270.5577  
VDW       = -1270.5577    QQ        = 0.0000        Bond      = 0.0000      
BondAngle = 0.0000        Torsion   = 0.0000        Tether    = 0.0000      
VIRIAL 
Total     = 162.9665      Constraint= 0.0000      
[...]
VDW       = -1245.9266    QQ        = 0.0000        Bond      = 0.0000      
BondAngle = 0.0000        Torsion   = 0.0000        Tether    = 0.0000      
VIRIAL 
Total     = -315.8670     Constraint= 0.0000      
VDW       = -315.8670     QQ        = 0.0000        Bond      = 0.0000      
BondAngle = 0.0000        Torsion   = 0.0000        Tether    = 0.0000      

MeanSquaredDisplacement
Species1
Atom 1: 820.603 
--------------------------------------------------------------------------------

Step 58000	 Instantaneous Values
System
Temperature(K) = 236.9988    
Pressure(kbar) = 13.7145     
ConservedQty   = 220.4400    
ENERGY 
Total     = 197.9751      Kinetic   = 1510.4106     Potential = -1312.4355  
VDW       = -1312.4355    QQ        = 0.0000        Bond      = 0.0000      
BondAngle = 0.0000        Torsion   = 0.0000        Tether    = 0.0000      
VIRIAL 
Total     = -193.7577     Constraint= 0.0000      
VDW       = -193.7577     QQ        = 0.0000        Bond      = 0.0000      
BondAngle = 0.0000        Torsion   = 0.0000        Tether    = 0.0000      

MeanSquaredDisplacement
Species1
Atom 1: 821.579 
--------------------------------------------------------------------------------

Step 58000	Averages
System
CELL
   A          B          C          Alpha      Beta       Gamma   
   10.8580    10.8580    10.8580    90.0000    90.0000    90.0000
Lattice vectors
   1.0858000000e+01    0.0000000000e+00    0.0000000000e+00
   1.2756316186e-39    1.0858000000e+01    0.0000000000e+00
   1.2756316186e-39    1.2756316186e-39    1.0858000000e+01
Cell Volume: 1280.12   
Cell Type: Cubic    PBCType: CUBIC

Temperature(K) = 240.5704    
Pressure(kbar) = 11.4678     
ConservedQty   = 222.4622    
ENERGY 
Total     = 236.3872      Kinetic   = 1533.1726     Potential = -1296.7854  
VDW       = -1296.7854    QQ        = 0.0000        Bond      = 0.0000      
BondAngle = 0.0000        Torsion   = 0.0000        Tether    = 0.0000      
VIRIAL 
Total     = 378.3589      Constraint= 0.0000      
VDW       = 378.3589      QQ        = 0.0000        Bond      = 0.0000      
BondAngle = 0.0000        Torsion   = 0.0000        Tether    = 0.0000      

--------------------------------------------------------------------------------

--------------------------------------------------------------------------------

Step 58100	 Instantaneous Values
System
Temperature(K) = 237.4677    
Pressure(kbar) = 10.9143     
ConservedQty   = 222.3750    
ENERGY 
Total     = 203.3502      Kinetic   = 1513.3991     Potential = -1310.0489  
VDW       = -1310.0489    QQ        = 0.0000        Bond      = 0.0000      
BondAngle = 0.0000        Torsion   = 0.0000        Tether    = 0.0000      
VIRIAL 
Total     = 468.5535      Constraint= 0.0000      
VDW       = 468.5535      QQ        = 0.0000        Bond      = 0.0000      
BondAngle = 0.0000        Torsion   = 0.0000        Tether    = 0.0000      

MeanSquaredDisplacement
Species1
Atom 1: 823.492 
--------------------------------------------------------------------------------

Step 58200	 Instantaneous Values
System
Temperature(K) = 246.1359    
Pressure(kbar) = 11.9997     
ConservedQty   = 220.9975    
ENERGY 
Total     = 261.4938      Kinetic   = 1568.6423     Potential = -1307.1485  
VDW       = -1307.1485    QQ        = 0.0000        Bond      = 0.0000      
BondAngle = 0.0000        Torsion   = 0.0000        Tether    = 0.0000      
VIRIAL 
Total     = 324.6296      Constraint= 0.0000      
VDW       = 324.6296      QQ        = 0.0000        Bond      = 0.0000      
BondAngle = 0.0000        Torsion   = 0.0000        Tether    = 0.0000      

MeanSquaredDisplacement
Species1
Atom 1: 824.251 
--------------------------------------------------------------------------------

Step 58300	 Instantaneous Values
System
Temperature(K) = 228.3976    
Pressure(kbar) = 12.0158     
ConservedQty   = 222.7604    
ENERGY 
Total     = 167.3639      Kinetic   = 1455.5942     Potential = -1288.2304  
VDW       = -1288.2304    QQ        = 0.0000        Bond      = 0.0000      
BondAngle = 0.0000        Torsion   = 0.0000        Tether    = 0.0000      
VIRIAL 
Total     = 94.7736       Constraint= 0.0000      
VDW       = 94.7736       QQ        = 0.0000        Bond      = 0.0000      
BondAngle = 0.0000        Torsion   = 0.0000        Tether    = 0.0000      

MeanSquaredDisplacement
Species1
Atom 1: 824.496 
--------------------------------------------------------------------------------

Step 58400	 Instantaneous Values
System
Temperature(K) = 252.6515    
Pressure(kbar) = 11.5002     
ConservedQty   = 222.9252    
ENERGY 
Total     = 304.2875      Kinetic   = 1610.1666     Potential = -1305.8790  
VDW       = -1305.8790    QQ        = 0.0000        Bond      = 0.0000      
BondAngle = 0.0000        Torsion   = 0.0000        Tether    = 0.0000      
VIRIAL 
Total     = 524.7722      Constraint= 0.0000      
VDW       = 524.7722      QQ        = 0.0000        Bond      = 0.0000      
BondAngle = 0.0000        Torsion   = 0.0000        Tether    = 0.0000      

MeanSquaredDisplacement
Species1
Atom 1: 825.354 
--------------------------------------------------------------------------------

Step 58500	 Instantaneous Values
System
Temperature(K) = 229.2918    
Pressure(kbar) = 8.6079      
ConservedQty   = 222.8571    
ENERGY 
Total     = 127.0927      Kinetic   = 1461.2933     Potential = -1334.2006  
VDW       = -1334.2006    QQ        = 0.0000        Bond      = 0.0000      
BondAngle = 0.0000        Torsion   = 0.0000        Tether    = 0.0000      
VIRIAL 
Total     = 904.9517      Constraint= 0.0000      
VDW       = 904.9517      QQ        = 0.0000        Bond      = 0.0000      
BondAngle = 0.0000        Torsion   = 0.0000        Tether    = 0.0000      

MeanSquaredDisplacement
Species1
Atom 1: 826.576 
--------------------------------------------------------------------------------

Step 58600	 Instantaneous Values
System
Temperature(K) = 257.8284    
Pressure(kbar) = 10.6555     
ConservedQty   = 222.0622    
ENERGY 
Total     = 316.0488      Kinetic   = 1643.1594     Potential = -1327.1106  
VDW       = -1327.1106    QQ        = 0.0000        Bond      = 0.0000      
BondAngle = 0.0000        Torsion   = 0.0000        Tether    = 0.0000      
VIRIAL 
Total     = 788.7431      Constraint= 0.0000      
VDW       = 788.7431      QQ        = 0.0000        Bond      = 0.0000      
BondAngle = 0.0000        Torsion   = 0.0000        Tether    = 0.0000      

MeanSquaredDisplacement
Species1
Atom 1: 827.134 
--------------------------------------------------------------------------------

Step 58700	 Instantaneous Values
System
Temperature(K) = 224.8528    
Pressure(kbar) = 10.6193     
ConservedQty   = 222.8014    
ENERGY 
Total     = 134.2914      Kinetic   = 1433.0033     Potential = -1298.7120  
VDW       = -1298.7120    QQ        = 0.0000        Bond      = 0.0000      
BondAngle = 0.0000        Torsion   = 0.0000        Tether    = 0.0000      
VIRIAL 
Total     = 376.9195      Constraint= 0.0000      
VDW       = 376.9195      QQ        = 0.0000        Bond      = 0.0000      
BondAngle = 0.0000        Torsion   = 0.0000        Tether    = 0.0000      

MeanSquaredDisplacement
Species1
Atom 1: 828.557 
--------------------------------------------------------------------------------

Step 58800	 Instantaneous Values
System
Temperature(K) = 251.6411    
Pressure(kbar) = 14.7429     
ConservedQty   = 221.9071    
ENERGY 
Total     = 340.7034      Kinetic   = 1603.7271     Potential = -1263.0237  
VDW       = -1263.0237    QQ        = 0.0000        Bond      = 0.0000      
BondAngle = 0.0000        Torsion   = 0.0000        Tether    = 0.0000      
VIRIAL 
Total     = -248.1771     Constraint= 0.0000      
VDW       = -248.1771     QQ        = 0.0000        Bond      = 0.0000      
BondAngle = 0.0000        Torsion   = 0.0000        Tether    = 0.0000      

MeanSquaredDisplacement
Species1
Atom 1: 832.823 
--------------------------------------------------------------------------------

Step 58900	 Instantaneous Values
System
Temperature(K) = 226.0676    
Pressure(kbar) = 7.2208      
ConservedQty   = 222.7095    
ENERGY 
Total     = 116.4862      Kinetic   = 1440.7453     Potential = -1324.2591  
VDW       = -1324.2591    QQ        = 0.0000        Bond      = 0.0000      
BondAngle = 0.0000        Torsion   = 0.0000        Tether    = 0.0000      
VIRIAL 
Total     = 1188.9950     Constraint= 0.0000      
VDW       = 1188.9950     QQ        = 0.0000        Bond      = 0.0000      
BondAngle = 0.0000        Torsion   = 0.0000        Tether    = 0.0000      

MeanSquaredDisplacement
Species1
Atom 1: 835.012 
--------------------------------------------------------------------------------

Step 59000	 Instantaneous Values
System
Temperature(K) = 258.2622    
Pressure(kbar) = 12.7746     
ConservedQty   = 221.3972    
ENERGY 
Total     = 341.5608      Kinetic   = 1645.9236     Potential = -1304.3628  
VDW       = -1304.3628    QQ        = 0.0000        Bond      = 0.0000      
BondAngle = 0.0000        Torsion   = 0.0000        Tether    = 0.0000      
VIRIAL 
Total     = 297.5585      Constraint= 0.0000      
VDW       = 297.5585      QQ        = 0.0000        Bond      = 0.0000      
BondAngle = 0.0000        Torsion   = 0.0000        Tether    = 0.0000      

MeanSquaredDisplacement
Species1
Atom 1: 836.608 
--------------------------------------------------------------------------------

Step 59000	Averages
System
CELL
   A          B          C          Alpha      Beta       Gamma   
   10.8580    10.8580    10.8580    90.0000    90.0000    90.0000
Lattice vectors
   1.0858000000e+01    0.0000000000e+00    0.0000000000e+00
   1.2495983202e-39    1.0858000000e+01    0.0000000000e+00
   1.2495983202e-39    1.2495983202e-39    1.0858000000e+01
Cell Volume: 1280.12   
Cell Type: Cubic    PBCType: CUBIC

Temperature(K) = 240.5845    
Pressure(kbar) = 11.4604     
ConservedQty   = 222.4585    
ENERGY 
Total     = 236.2827      Kinetic   = 1533.2622     Potential = -1296.9795  
VDW       = -1296.9795    QQ        = 0.0000        Bond      = 0.0000      
BondAngle = 0.0000        Torsion   = 0.0000        Tether    = 0.0000      
VIRIAL 
Total     = 380.2735      Constraint= 0.0000      
VDW       = 380.2735      QQ        = 0.0000        Bond      = 0.0000      
BondAngle = 0.0000        Torsion   = 0.0000        Tether    = 0.0000      

--------------------------------------------------------------------------------

--------------------------------------------------------------------------------

Step 59100	 Instantaneous Values
System
Temperature(K) = 225.2569    
Pressure(kbar) = 10.0309     
ConservedQty   = 222.2729    
ENERGY 
Total     = 141.0648      Kinetic   = 1435.5789     Potential = -1294.5141  
VDW       = -1294.5141    QQ        = 0.0000        Bond      = 0.0000      
BondAngle = 0.0000        Torsion   = 0.0000        Tether    = 0.0000      
VIRIAL 
Total     = 519.9905      Constraint= 0.0000      
VDW       = 519.9905      QQ        = 0.0000        Bond      = 0.0000      
BondAngle = 0.0000        Torsion   = 0.0000        Tether    = 0.0000      

MeanSquaredDisplacement
Species1
Atom 1: 840.617 
--------------------------------------------------------------------------------

Step 59200	 Instantaneous Values
System
Temperature(K) = 249.3560    
Pressure(kbar) = 16.6431     
ConservedQty   = 223.7411    
ENERGY 
Total     = 364.9007      Kinetic   = 1589.1643     Potential = -1224.2635  
VDW       = -1224.2635    QQ        = 0.0000        Bond      = 0.0000      
BondAngle = 0.0000        Torsion   = 0.0000        Tether    = 0.0000      
VIRIAL 
Total     = -722.6981     Constraint= 0.0000      
VDW       = -722.6981     QQ        = 0.0000        Bond      = 0.0000      
BondAngle = 0.0000        Torsion   = 0.0000        Tether    = 0.0000      

MeanSquaredDisplacement
Species1
Atom 1: 844.484 
--------------------------------------------------------------------------------

Step 59300	 Instantaneous Values
System
Temperature(K) = 222.3145    
Pressure(kbar) = 11.6717     
ConservedQty   = 222.3004    
ENERGY 
Total     = 109.4537      Kinetic   = 1416.8262     Potential = -1307.3725  
VDW       = -1307.3725    QQ        = 0.0000        Bond      = 0.0000      
BondAngle = 0.0000        Torsion   = 0.0000        Tether    = 0.0000      
VIRIAL 
Total     = 97.8801       Constraint= 0.0000      
VDW       = 97.8801       QQ        = 0.0000        Bond      = 0.0000      
BondAngle = 0.0000        Torsion   = 0.0000        Tether    = 0.0000      

MeanSquaredDisplacement
Species1
Atom 1: 846.416 
--------------------------------------------------------------------------------

Step 59400	 Instantaneous Values
System
Temperature(K) = 259.8524    
Pressure(kbar) = 13.4033     
ConservedQty   = 220.8722    
ENERGY 
Total     = 335.9280      Kinetic   = 1656.0586     Potential = -1320.1306  
VDW       = -1320.1306    QQ        = 0.0000        Bond      = 0.0000      
BondAngle = 0.0000        Torsion   = 0.0000        Tether    = 0.0000      
VIRIAL 
Total     = 170.4637      Constraint= 0.0000      
VDW       = 170.4637      QQ        = 0.0000        Bond      = 0.0000      
BondAngle = 0.0000        Torsion   = 0.0000        Tether    = 0.0000      

MeanSquaredDisplacement
Species1
Atom 1: 848.352 
--------------------------------------------------------------------------------

Step 59500	 Instantaneous Values
System
Temperature(K) = 224.5636    
Pressure(kbar) = 10.2984     
ConservedQty   = 222.7542    
ENERGY 
Total     = 132.5466      Kinetic   = 1431.1602     Potential = -1298.6136  
VDW       = -1298.6136    QQ        = 0.0000        Bond      = 0.0000      
BondAngle = 0.0000        Torsion   = 0.0000        Tether    = 0.0000      
VIRIAL 
Total     = 448.4362      Constraint= 0.0000      
VDW       = 448.4362      QQ        = 0.0000        Bond      = 0.0000      
BondAngle = 0.0000        Torsion   = 0.0000        Tether    = 0.0000      

MeanSquaredDisplacement
Species1
Atom 1: 848.985 
--------------------------------------------------------------------------------

Step 59600	 Instantaneous Values
System
Temperature(K) = 252.0456    
Pressure(kbar) = 10.6572     
ConservedQty   = 223.1754    
ENERGY 
Total     = 311.1843      Kinetic   = 1606.3047     Potential = -1295.1204  
VDW       = -1295.1204    QQ        = 0.0000        Bond      = 0.0000      
BondAngle = 0.0000        Torsion   = 0.0000        Tether    = 0.0000      
VIRIAL 
Total     = 714.6381      Constraint= 0.0000      
VDW       = 714.6381      QQ        = 0.0000        Bond      = 0.0000      
BondAngle = 0.0000        Torsion   = 0.0000        Tether    = 0.0000      

MeanSquaredDisplacement
Species1
Atom 1: 850.202 
--------------------------------------------------------------------------------

Step 59700	 Instantaneous Values
System
Temperature(K) = 239.6194    
Pressure(kbar) = 10.7450     
ConservedQty   = 221.0611    
ENERGY 
Total     = 213.3251      Kinetic   = 1527.1116     Potential = -1313.7866  
VDW       = -1313.7866    QQ        = 0.0000        Bond      = 0.0000      
BondAngle = 0.0000        Torsion   = 0.0000        Tether    = 0.0000      
VIRIAL 
Total     = 535.6698      Constraint= 0.0000      
VDW       = 535.6698      QQ        = 0.0000        Bond      = 0.0000      
BondAngle = 0.0000        Torsion   = 0.0000        Tether    = 0.0000      

MeanSquaredDisplacement
Species1
Atom 1: 853.531 
--------------------------------------------------------------------------------

Step 59800	 Instantaneous Values
System
Temperature(K) = 235.6470    
Pressure(kbar) = 12.0045     
ConservedQty   = 222.6262    
ENERGY 
Total     = 219.5305      Kinetic   = 1501.7957     Potential = -1282.2652  
VDW       = -1282.2652    QQ        = 0.0000        Bond      = 0.0000      
BondAngle = 0.0000        Torsion   = 0.0000        Tether    = 0.0000      
VIRIAL 
Total     = 189.8189      Constraint= 0.0000      
VDW       = 189.8189      QQ        = 0.0000        Bond      = 0.0000      
BondAngle = 0.0000        Torsion   = 0.0000        Tether    = 0.0000      

MeanSquaredDisplacement
Species1
Atom 1: 854.96 
--------------------------------------------------------------------------------

Step 59900	 Instantaneous Values
System
Temperature(K) = 244.5040    
Pressure(kbar) = 10.7281     
ConservedQty   = 222.3397    
ENERGY 
Total     = 250.0812      Kinetic   = 1558.2416     Potential = -1308.1604  
VDW       = -1308.1604    QQ        = 0.0000        Bond      = 0.0000      
BondAngle = 0.0000        Torsion   = 0.0000        Tether    = 0.0000      
VIRIAL 
Total     = 601.8942      Constraint= 0.0000      
VDW       = 601.8942      QQ        = 0.0000        Bond      = 0.0000      
BondAngle = 0.0000        Torsion   = 0.0000        Tether    = 0.0000      

MeanSquaredDisplacement
Species1
Atom 1: 857.412 
--------------------------------------------------------------------------------

Step 60000	 Instantaneous Values
System
Temperature(K) = 246.3756    
Pressure(kbar) = 8.3566      
ConservedQty   = 222.4691    
ENERGY 
Total     = 235.2410      Kinetic   = 1570.1699     Potential = -1334.9289  
VDW       = -1334.9289    QQ        = 0.0000        Bond      = 0.0000      
BondAngle = 0.0000        Torsion   = 0.0000        Tether    = 0.0000      
VIRIAL 
Total     = 1181.6157     Constraint= 0.0000      
VDW       = 1181.6157     QQ        = 0.0000        Bond      = 0.0000      
BondAngle = 0.0000        Torsion   = 0.0000        Tether    = 0.0000      

MeanSquaredDisplacement
Species1
Atom 1: 857.947 
--------------------------------------------------------------------------------

Step 60000	Averages
System
CELL
   A          B          C          Alpha      Beta       Gamma   
   10.8580    10.8580    10.8580    90.0000    90.0000    90.0000
Lattice vectors
   1.0858000000e+01    0.0000000000e+00    0.0000000000e+00
   1.2246063538e-39    1.0858000000e+01    0.0000000000e+00
   1.2246063538e-39    1.2246063538e-39    1.0858000000e+01
Cell Volume: 1280.12   
Cell Type: Cubic    PBCType: CUBIC

Temperature(K) = 240.5718    
Pressure(kbar) = 11.4603     
ConservedQty   = 222.4566    
ENERGY 
Total     = 236.1836      Kinetic   = 1533.1818     Potential = -1296.9982  
VDW       = -1296.9982    QQ        = 0.0000        Bond      = 0.0000      
BondAngle = 0.0000        Torsion   = 0.0000        Tether    = 0.0000      
VIRIAL 
Total     = 380.1434      Constraint= 0.0000      
VDW       = 380.1434      QQ        = 0.0000        Bond      = 0.0000      
BondAngle = 0.0000        Torsion   = 0.0000        Tether    = 0.0000      

--------------------------------------------------------------------------------

--------------------------------------------------------------------------------

Step 60000	Averages
System
CELL
   A          B          C          Alpha      Beta       Gamma   
   10.8580    10.8580    10.8580    90.0000    90.0000    90.0000
Lattice vectors
   1.0858000000e+01    0.0000000000e+00    0.0000000000e+00
   1.2246063538e-39    1.0858000000e+01    0.0000000000e+00
   1.2246063538e-39    1.2246063538e-39    1.0858000000e+01
Cell Volume: 1280.12   
Cell Type: Cubic    PBCType: CUBIC

Temperature(K) = 240.5718    
Pressure(kbar) = 11.4603     
ConservedQty   = 222.4566    
ENERGY 
Total     = 236.1836      Kinetic   = 1533.1818     Potential = -1296.9982  
VDW       = -1296.9982    QQ        = 0.0000        Bond      = 0.0000      
BondAngle = 0.0000        Torsion   = 0.0000        Tether    = 0.0000      
VIRIAL 
Total     = 380.1434      Constraint= 0.0000      
VDW       = 380.1434      QQ        = 0.0000        Bond      = 0.0000      
BondAngle = 0.0000        Torsion   = 0.0000        Tether    = 0.0000      

--------------------------------------------------------------------------------

