LJ
CONTROL PARAMETERS
 Mode:                Molecular Dynamics
 Number Of Steps:     60000
 Equilibration Steps: 10000
 Timestep:            0.0005 ps
 ConstraintTolerance: 1.000e-08
 Ensemble:            NVT    tau(T): 0.02000 Temperature: 240.5 K 
 Temperature scaling: Every 10 steps during equilibration period
 Forcefield:          VDW
 Cutoff : 2.500 Angstrom DCutoff: 0.3000 Angstrom
 LongRangeCorrection: Enabled

 PBC:   CUBIC, Shift particles

 FGDistribution:      Enabled, Active Species: 0    DeltaX = 1.200
 Statistics:          Enabled, Accumulation Interval: 100
 PeriodicOutput Interval:       100
 AveragesOutputInterval:        1000
 Configuration Save Start Step: 1
 Configuration Save Interval:   100000
 Configuration Save Data Level: Coordinates only
 Configuration Input DataLevel: Coordinates only
 IsPDBOutput:   true


--------------------------------------------------------------------------------

Energy units:kj/mol

MOLECULAR ENSEMBLE  
LJ SYSTEM
TotalMass        = 512.000000
CentreOfMass     = -0.399375 -0.643438 -2.041250
DegreesOfFreedom = 1536

LJ
number of molecules 512
Atoms 1
 nr atom type res  resnr ffid mass   charge freeze
  1   LJ   LJ  MOL    0   0   1.00   0.0000 false

charge: 0
mass: 1
degrees of freedom: 3

InteractionWeightVDW
0 

InteractionWeightQQ
0 

Atom Connectivity
1 

MC displacement parameters
MaximumTranslation: 0.01 Ang   MaximumRotation: 5 deg

TotalMass        = 512
CentreOfMass     = -0.399375 -0.643438 -2.04125
DegreesOfFreedom = 1536

NumberOfMolecules  512



--------------------------------------------------------------------------------

Forcefield NON_BONDED PARAMETERS

Cutoff:2.5  DCutoff:0.3
TabulationSize = 2750
vdw 1
  LJ   LJ lj          1        1

--------------------------------------------------------------------------------

CELL
   A          B          C          Alpha      Beta       Gamma   
    7.5280     7.5280     7.5280    90.0000    90.0000    90.0000
Lattice vectors
   7.5280000000e+00    0.0000000000e+00    0.0000000000e+00
   0.0000000000e+00    7.5280000000e+00    0.0000000000e+00
   0.0000000000e+00    0.0000000000e+00    7.5280000000e+00
Cell Volume: 426.618   
Cell Type: Cubic    PBCType: CUBIC

--------------------------------------------------------------------------------

THERMOSTAT
ExternalTemperature: 240.5 K
Temperature:         0 K
DegreesOfFreedom:    1533
Tau:  0.02 ps
Chi:      0
Chi_bhDT: 0
Chi_fhDT: 0
ConservedIntegral:  0

--------------------------------------------------------------------------------

BAROSTAT
ExtPressure:  599 kbar
Tau(P):       1 ps
Pressure:     0 kbar
Virial:       0 kJ/mol
StressTensor: false


--------------------------------------------------------------------------------

Step 100	 Instantaneous Values
System
Temperature(K) = 240.5000    
Pressure(kbar) = 621.0654    
ConservedQty   = -433.1616   
ENERGY 
Total     = -463.4064     Kinetic   = 1532.7240     Potential = -1996.1304  
VDW       = -1996.1304    QQ        = 0.0000        Bond      = 0.0000      
BondAngle = 0.0000        Torsion   = 0.0000        Tether    = 0.0000      
VIRIAL 
Total     = -45449.0800   Constraint= 0.0000      
VDW       = -45449.0800   QQ        = 0.0000        Bond      = 0.0000      
BondAngle = 0.0000        Torsion   = 0.0000        Tether    = 0.0000      

--------------------------------------------------------------------------------

Step 200	 Instantaneous Values
System
Temperature(K) = 240.5000    
Pressure(kbar) = 637.1973    
ConservedQty   = -349.9007   
ENERGY 
Total     = -372.3031     Kinetic   = 1532.7240     Potential = -1905.0271  
VDW       = -1905.0271    QQ        = 0.0000        Bond      = 0.0000      
BondAngle = 0.0000        Torsion   = 0.0000        Tether    = 0.0000      
VIRIAL 
Total     = -46709.2188   Constraint= 0.0000      
VDW       = -46709.2188   QQ        = 0.0000        Bond      = 0.0000      
BondAngle = 0.0000        Torsion   = 0.0000        Tether    = 0.0000      

--------------------------------------------------------------------------------

Step 300	 Instantaneous Values
System
Temperature(K) = 240.5000    
Pressure(kbar) = 639.7356    
ConservedQty   = -332.1547   
ENERGY 
Total     = -358.3889     Kinetic   = 1532.7240     Potential = -1891.1129  
VDW       = -1891.1129    QQ        = 0.0000        Bond      = 0.0000      
BondAngle = 0.0000        Torsion   = 0.0000        Tether    = 0.0000      
VIRIAL 
Total     = -46907.5011   Constraint= 0.0000      
VDW       = -46907.5011   QQ        = 0.0000        Bond      = 0.0000      
BondAngle = 0.0000        Torsion   = 0.0000        Tether    = 0.0000      

--------------------------------------------------------------------------------

Step 400	 Instantaneous Values
System
Temperature(K) = 240.5000    
Pressure(kbar) = 631.6020    
ConservedQty   = -380.7518   
ENERGY 
Total     = -408.2527     Kinetic   = 1532.7240     Potential = -1940.9767  
VDW       = -1940.9767    QQ        = 0.0000        Bond      = 0.0000      
BondAngle = 0.0000        Torsion   = 0.0000        Tether    = 0.0000      
VIRIAL 
Total     = -46272.1463   Constraint= 0.0000      
VDW       = -46272.1463   QQ        = 0.0000        Bond      = 0.0000      
BondAngle = 0.0000        Torsion   = 0.0000        Tether    = 0.0000      

--------------------------------------------------------------------------------

Step 500	 Instantaneous Values
System
Temperature(K) = 240.5000    
Pressure(kbar) = 654.6246    
ConservedQty   = -265.9760   
ENERGY 
Total     = -283.7964     Kinetic   = 1532.7240     Potential = -1816.5204  
VDW       = -1816.5204    QQ        = 0.0000        Bond      = 0.0000      
BondAngle = 0.0000        Torsion   = 0.0000        Tether    = 0.0000      
VIRIAL 
Total     = -48070.5520   Constraint= 0.0000      
VDW       = -48070.5520   QQ        = 0.0000        Bond      = 0.0000      
BondAngle = 0.0000        Torsion   = 0.0000        Tether    = 0.0000      

--------------------------------------------------------------------------------

Step 600	 Instantaneous Values
System
Temperature(K) = 240.5000    
Pressure(kbar) = 643.7459    
ConservedQty   = -325.1486   
ENERGY 
Total     = -345.4413     Kinetic   = 1532.7240     Potential = -1878.1654  
VDW       = -1878.1654    QQ        = 0.0000        Bond      = 0.0000      
BondAngle = 0.0000        Torsion   = 0.0000        Tether    = 0.0000      
VIRIAL 
Total     = -47220.7665   Constraint= 0.0000      
VDW       = -47220.7665   QQ        = 0.0000        Bond      = 0.0000      
BondAngle = 0.0000        Torsion   = 0.0000        Tether    = 0.0000      

--------------------------------------------------------------------------------

Step 700	 Instantaneous Values
System
Temperature(K) = 240.5000    
Pressure(kbar) = 635.1528    
ConservedQty   = -367.0659   
ENERGY 
Total     = -390.7057     Kinetic   = 1532.7240     Potential = -1923.4297  
VDW       = -1923.4297    QQ        = 0.0000        Bond      = 0.0000      
BondAngle = 0.0000        Torsion   = 0.0000        Tether    = 0.0000      
VIRIAL 
Total     = -46549.5125   Constraint= 0.0000      
VDW       = -46549.5125   QQ        = 0.0000        Bond      = 0.0000      
BondAngle = 0.0000        Torsion   = 0.0000        Tether    = 0.0000      

--------------------------------------------------------------------------------

Step 800	 Instantaneous Values
System
Temperature(K) = 240.5000    
Pressure(kbar) = 641.9767    
ConservedQty   = -324.3935   
ENERGY 
Total     = -350.3654     Kinetic   = 1532.7240     Potential = -1883.0894  
VDW       = -1883.0894    QQ        = 0.0000        Bond      = 0.0000      
BondAngle = 0.0000        Torsion   = 0.0000        Tether    = 0.0000      
VIRIAL 
Total     = -47082.5605   Constraint= 0.0000      
VDW       = -47082.5605   QQ        = 0.0000        Bond      = 0.0000      
BondAngle = 0.0000        Torsion   = 0.0000        Tether    = 0.0000      

--------------------------------------------------------------------------------

Step 900	 Instantaneous Values
System
Temperature(K) = 240.5000    
Pressure(kbar) = 643.0951    
ConservedQty   = -314.8986   
ENERGY 
Total     = -340.6007     Kinetic   = 1532.7240     Potential = -1873.3247  
VDW       = -1873.3247    QQ        = 0.0000        Bond      = 0.0000      
BondAngle = 0.0000        Torsion   = 0.0000        Tether    = 0.0000      
VIRIAL 
Total     = -47169.9234   Constraint= 0.0000      
VDW       = -47169.9234   QQ        = 0.0000        Bond      = 0.0000      
BondAngle = 0.0000        Torsion   = 0.0000        Tether    = 0.0000      

--------------------------------------------------------------------------------

Step 1000	 Instantaneous Values
System
Temperature(K) = 240.5000    
Pressure(kbar) = 643.6601    
ConservedQty   = -326.9471   
ENERGY 
Total     = -344.8044     Kinetic   = 1532.7240     Potential = -1877.5285  
VDW       = -1877.5285    QQ        = 0.0000        Bond      = 0.0000      
BondAngle = 0.0000        Torsion   = 0.0000        Tether    = 0.0000      
VIRIAL 
Total     = -47214.0605   Constraint= 0.0000      
VDW       = -47214.0605   QQ        = 0.0000        Bond      = 0.0000      
BondAngle = 0.0000        Torsion   = 0.0000        Tether    = 0.0000      

--------------------------------------------------------------------------------

Step 1100	 Instantaneous Values
System
Temperature(K) = 240.5000    
Pressure(kbar) = 639.3285    
ConservedQty   = -357.4390   
ENERGY 
Total     = -361.4303     Kinetic   = 1532.7240     Potential = -1894.1543  
VDW       = -1894.1543    QQ        = 0.0000        Bond      = 0.0000      
BondAngle = 0.0000        Torsion   = 0.0000        Tether    = 0.0000      
VIRIAL 
Total     = -46875.7024   Constraint= 0.0000      
VDW       = -46875.7024   QQ        = 0.0000        Bond      = 0.0000      
BondAngle = 0.0000        Torsion   = 0.0000        Tether    = 0.0000      

--------------------------------------------------------------------------------

Step 1200	 Instantaneous Values
System
Temperature(K) = 240.5000    
Pressure(kbar) = 619.5486    
ConservedQty   = -468.9698   
ENERGY 
Total     = -468.4855     Kinetic   = 1532.7240     Potential = -2001.2095  
VDW       = -2001.2095    QQ        = 0.0000        Bond      = 0.0000      
BondAngle = 0.0000        Torsion   = 0.0000        Tether    = 0.0000      
VIRIAL 
Total     = -45330.5918   Constraint= 0.0000      
VDW       = -45330.5918   QQ        = 0.0000        Bond      = 0.0000      
BondAngle = 0.0000        Torsion   = 0.0000        Tether    = 0.0000      

--------------------------------------------------------------------------------

Step 1300	 Instantaneous Values
System
Temperature(K) = 240.5000    
Pressure(kbar) = 640.1521    
ConservedQty   = -357.0651   
ENERGY 
Total     = -355.0848     Kinetic   = 1532.7240     Potential = -1887.8088  
VDW       = -1887.8088    QQ        = 0.0000        Bond      = 0.0000      
BondAngle = 0.0000        Torsion   = 0.0000        Tether    = 0.0000      
VIRIAL 
Total     = -46940.0347   Constraint= 0.0000      
VDW       = -46940.0347   QQ        = 0.0000        Bond      = 0.0000      
BondAngle = 0.0000        Torsion   = 0.0000        Tether    = 0.0000      

--------------------------------------------------------------------------------

Step 1400	 Instantaneous Values
System
Temperature(K) = 240.5000    
Pressure(kbar) = 627.7405    
ConservedQty   = -424.2812   
ENERGY 
Total     = -421.8081     Kinetic   = 1532.7240     Potential = -1954.5321  
VDW       = -1954.5321    QQ        = 0.0000        Bond      = 0.0000      
BondAngle = 0.0000        Torsion   = 0.0000        Tether    = 0.0000      
VIRIAL 
Total     = -45970.5028   Constraint= 0.0000      
VDW       = -45970.5028   QQ        = 0.0000        Bond      = 0.0000      
BondAngle = 0.0000        Torsion   = 0.0000        Tether    = 0.0000      

--------------------------------------------------------------------------------

Step 1500	 Instantaneous Values
System
Temperature(K) = 240.5000    
Pressure(kbar) = 629.9298    
ConservedQty   = -417.0487   
ENERGY 
Total     = -407.1082     Kinetic   = 1532.7240     Potential = -1939.8322  
VDW       = -1939.8322    QQ        = 0.0000        Bond      = 0.0000      
BondAngle = 0.0000        Torsion   = 0.0000        Tether    = 0.0000      
VIRIAL 
Total     = -46141.5164   Constraint= 0.0000      
VDW       = -46141.5164   QQ        = 0.0000        Bond      = 0.0000      
BondAngle = 0.0000        Torsion   = 0.0000        Tether    = 0.0000      

--------------------------------------------------------------------------------

Step 1600	 Instantaneous Values
System
Temperature(K) = 240.5000    
Pressure(kbar) = 635.4434    
ConservedQty   = -399.6224   
ENERGY 
Total     = -387.8589     Kinetic   = 1532.7240     Potential = -1920.5829  
VDW       = -1920.5829    QQ        = 0.0000        Bond      = 0.0000      
BondAngle = 0.0000        Torsion   = 0.0000        Tether    = 0.0000      
VIRIAL 
Total     = -46572.2108   Constraint= 0.0000      
VDW       = -46572.2108   QQ        = 0.0000        Bond      = 0.0000      
BondAngle = 0.0000        Torsion   = 0.0000        Tether    = 0.0000      

--------------------------------------------------------------------------------

Step 1700	 Instantaneous Values
System
Temperature(K) = 240.5000    
Pressure(kbar) = 633.9707    
ConservedQty   = -405.7882   
ENERGY 
Total     = -386.5290     Kinetic   = 1532.7240     Potential = -1919.2530  
VDW       = -1919.2530    QQ        = 0.0000        Bond      = 0.0000      
BondAngle = 0.0000        Torsion   = 0.0000        Tether    = 0.0000      
VIRIAL 
Total     = -46457.1715   Constraint= 0.0000      
VDW       = -46457.1715   QQ        = 0.0000        Bond      = 0.0000      
BondAngle = 0.0000        Torsion   = 0.0000        Tether    = 0.0000      

--------------------------------------------------------------------------------

Step 1800	 Instantaneous Values
System
Temperature(K) = 240.5000    
Pressure(kbar) = 642.6951    
ConservedQty   = -356.7714   
ENERGY 
Total     = -340.0515     Kinetic   = 1532.7240     Potential = -1872.7755  
VDW       = -1872.7755    QQ        = 0.0000        Bond      = 0.0000      
BondAngle = 0.0000        Torsion   = 0.0000        Tether    = 0.0000      
VIRIAL 
Total     = -47138.6795   Constraint= 0.0000      
VDW       = -47138.6795   QQ        = 0.0000        Bond      = 0.0000      
BondAngle = 0.0000        Torsion   = 0.0000        Tether    = 0.0000      

--------------------------------------------------------------------------------

Step 1900	 Instantaneous Values
System
Temperature(K) = 240.5000    
Pressure(kbar) = 628.9782    
ConservedQty   = -429.8900   
ENERGY 
Total     = -418.2818     Kinetic   = 1532.7240     Potential = -1951.0058  
VDW       = -1951.0058    QQ        = 0.0000        Bond      = 0.0000      
BondAngle = 0.0000        Torsion   = 0.0000        Tether    = 0.0000      
VIRIAL 
Total     = -46067.1879   Constraint= 0.0000      
VDW       = -46067.1879   QQ        = 0.0000        Bond      = 0.0000      
BondAngle = 0.0000        Torsion   = 0.0000        Tether    = 0.0000      

--------------------------------------------------------------------------------

Step 2000	 Instantaneous Values
System
Temperature(K) = 240.5000    
Pressure(kbar) = 637.5953    
ConservedQty   = -394.8211   
ENERGY 
Total     = -375.6578     Kinetic   = 1532.7240     Potential = -1908.3818  
VDW       = -1908.3818    QQ        = 0.0000        Bond      = 0.0000      
BondAngle = 0.0000        Torsion   = 0.0000        Tether    = 0.0000      
VIRIAL 
Total     = -46740.3087   Constraint= 0.0000      
VDW       = -46740.3087   QQ        = 0.0000        Bond      = 0.0000      
BondAngle = 0.0000        Torsion   = 0.0000        Tether    = 0.0000      

--------------------------------------------------------------------------------

Step 2100	 Instantaneous Values
System
Temperature(K) = 240.5000    
Pressure(kbar) = 633.4869    
ConservedQty   = -411.4972   
ENERGY 
Total     = -394.5026     Kinetic   = 1532.7240     Potential = -1927.2266  
VDW       = -1927.2266    QQ        = 0.0000        Bond      = 0.0000      
BondAngle = 0.0000        Torsion   = 0.0000        Tether    = 0.0000      
VIRIAL 
Total     = -46419.3831   Constraint= 0.0000      
VDW       = -46419.3831   QQ        = 0.0000        Bond      = 0.0000      
BondAngle = 0.0000        Torsion   = 0.0000        Tether    = 0.0000      

--------------------------------------------------------------------------------

Step 2200	 Instantaneous Values
System
Temperature(K) = 240.5000    
Pressure(kbar) = 630.5092    
ConservedQty   = -424.3042   
ENERGY 
Total     = -407.0297     Kinetic   = 1532.7240     Potential = -1939.7537  
VDW       = -1939.7537    QQ        = 0.0000        Bond      = 0.0000      
BondAngle = 0.0000        Torsion   = 0.0000        Tether    = 0.0000      
VIRIAL 
Total     = -46186.7799   Constraint= 0.0000      
VDW       = -46186.7799   QQ        = 0.0000        Bond      = 0.0000      
BondAngle = 0.0000        Torsion   = 0.0000        Tether    = 0.0000      

--------------------------------------------------------------------------------

Step 2300	 Instantaneous Values
System
Temperature(K) = 240.5000    
Pressure(kbar) = 623.3356    
ConservedQty   = -471.2675   
ENERGY 
Total     = -447.4142     Kinetic   = 1532.7240     Potential = -1980.1382  
VDW       = -1980.1382    QQ        = 0.0000        Bond      = 0.0000      
BondAngle = 0.0000        Torsion   = 0.0000        Tether    = 0.0000      
VIRIAL 
Total     = -45626.4165   Constraint= 0.0000      
VDW       = -45626.4165   QQ        = 0.0000        Bond      = 0.0000      
BondAngle = 0.0000        Torsion   = 0.0000        Tether    = 0.0000      

--------------------------------------------------------------------------------

Step 2400	 Instantaneous Values
System
Temperature(K) = 240.5000    
Pressure(kbar) = 620.1931    
ConservedQty   = -484.9494   
ENERGY 
Total     = -463.5363     Kinetic   = 1532.7240     Potential = -1996.2603  
VDW       = -1996.2603    QQ        = 0.0000        Bond      = 0.0000      
BondAngle = 0.0000        Torsion   = 0.0000        Tether    = 0.0000      
VIRIAL 
Total     = -45380.9339   Constraint= 0.0000      
VDW       = -45380.9339   QQ        = 0.0000        Bond      = 0.0000      
BondAngle = 0.0000        Torsion   = 0.0000        Tether    = 0.0000      

--------------------------------------------------------------------------------

Step 2500	 Instantaneous Values
System
Temperature(K) = 240.5000    
Pressure(kbar) = 624.6413    
ConservedQty   = -459.0961   
ENERGY 
Total     = -439.4171     Kinetic   = 1532.7240     Potential = -1972.1411  
VDW       = -1972.1411    QQ        = 0.0000        Bond      = 0.0000      
BondAngle = 0.0000        Torsion   = 0.0000        Tether    = 0.0000      
VIRIAL 
Total     = -45728.4097   Constraint= 0.0000      
VDW       = -45728.4097   QQ        = 0.0000        Bond      = 0.0000      
BondAngle = 0.0000        Torsion   = 0.0000        Tether    = 0.0000      

--------------------------------------------------------------------------------

Step 2600	 Instantaneous Values
System
Temperature(K) = 240.5000    
Pressure(kbar) = 634.1471    
ConservedQty   = -415.9424   
ENERGY 
Total     = -388.9235     Kinetic   = 1532.7240     Potential = -1921.6475  
VDW       = -1921.6475    QQ        = 0.0000        Bond      = 0.0000      
BondAngle = 0.0000        Torsion   = 0.0000        Tether    = 0.0000      
VIRIAL 
Total     = -46470.9544   Constraint= 0.0000      
VDW       = -46470.9544   QQ        = 0.0000        Bond      = 0.0000      
BondAngle = 0.0000        Torsion   = 0.0000        Tether    = 0.0000      

--------------------------------------------------------------------------------

Step 2700	 Instantaneous Values
System
Temperature(K) = 240.5000    
Pressure(kbar) = 628.2859    
ConservedQty   = -451.2374   
ENERGY 
Total     = -424.2934     Kinetic   = 1532.7240     Potential = -1957.0174  
VDW       = -1957.0174    QQ        = 0.0000        Bond      = 0.0000      
BondAngle = 0.0000        Torsion   = 0.0000        Tether    = 0.0000      
VIRIAL 
Total     = -46013.1039   Constraint= 0.0000      
VDW       = -46013.1039   QQ        = 0.0000        Bond      = 0.0000      
BondAngle = 0.0000        Torsion   = 0.0000        Tether    = 0.0000      

--------------------------------------------------------------------------------

Step 2800	 Instantaneous Values
System
Temperature(K) = 240.5000    
Pressure(kbar) = 620.1431    
ConservedQty   = -497.2696   
ENERGY 
Total     = -466.2084     Kinetic   = 1532.7240     Potential = -1998.9324  
VDW       = -1998.9324    QQ        = 0.0000        Bond      = 0.0000      
BondAngle = 0.0000        Torsion   = 0.0000        Tether    = 0.0000      
VIRIAL 
Total     = -45377.0350   Constraint= 0.0000      
VDW       = -45377.0350   QQ        = 0.0000        Bond      = 0.0000      
BondAngle = 0.0000        Torsion   = 0.0000        Tether    = 0.0000      

--------------------------------------------------------------------------------

Step 2900	 Instantaneous Values
System
Temperature(K) = 240.5000    
Pressure(kbar) = 618.7274    
ConservedQty   = -498.6341   
ENERGY 
Total     = -471.2604     Kinetic   = 1532.7240     Potential = -2003.9844  
VDW       = -2003.9844    QQ        = 0.0000        Bond      = 0.0000      
BondAngle = 0.0000        Torsion   = 0.0000        Tether    = 0.0000      
VIRIAL 
Total     = -45266.4445   Constraint= 0.0000      
VDW       = -45266.4445   QQ        = 0.0000        Bond      = 0.0000      
BondAngle = 0.0000        Torsion   = 0.0000        Tether    = 0.0000      

--------------------------------------------------------------------------------

Step 3000	 Instantaneous Values
System
Temperature(K) = 240.5000    
Pressure(kbar) = 636.2238    
ConservedQty   = -405.5157   
ENERGY 
Total     = -371.9339     Kinetic   = 1532.7240     Potential = -1904.6579  
VDW       = -1904.6579    QQ        = 0.0000        Bond      = 0.0000      
BondAngle = 0.0000        Torsion   = 0.0000        Tether    = 0.0000      
VIRIAL 
Total     = -46633.1716   Constraint= 0.0000      
VDW       = -46633.1716   QQ        = 0.0000        Bond      = 0.0000      
BondAngle = 0.0000        Torsion   = 0.0000        Tether    = 0.0000      

--------------------------------------------------------------------------------

Step 3100	 Instantaneous Values
System
Temperature(K) = 240.5000    
Pressure(kbar) = 636.4737    
ConservedQty   = -413.9848   
ENERGY 
Total     = -383.2551     Kinetic   = 1532.7240     Potential = -1915.9791  
VDW       = -1915.9791    QQ        = 0.0000        Bond      = 0.0000      
BondAngle = 0.0000        Torsion   = 0.0000        Tether    = 0.0000      
VIRIAL 
Total     = -46652.6941   Constraint= 0.0000      
VDW       = -46652.6941   QQ        = 0.0000        Bond      = 0.0000      
BondAngle = 0.0000        Torsion   = 0.0000        Tether    = 0.0000      

--------------------------------------------------------------------------------

Step 3200	 Instantaneous Values
System
Temperature(K) = 240.5000    
Pressure(kbar) = 638.0956    
ConservedQty   = -398.7557   
ENERGY 
Total     = -363.4620     Kinetic   = 1532.7240     Potential = -1896.1860  
VDW       = -1896.1860    QQ        = 0.0000        Bond      = 0.0000      
BondAngle = 0.0000        Torsion   = 0.0000        Tether    = 0.0000      
VIRIAL 
Total     = -46779.3887   Constraint= 0.0000      
VDW       = -46779.3887   QQ        = 0.0000        Bond      = 0.0000      
BondAngle = 0.0000        Torsion   = 0.0000        Tether    = 0.0000      

--------------------------------------------------------------------------------

Step 3300	 Instantaneous Values
System
Temperature(K) = 240.5000    
Pressure(kbar) = 639.3712    
ConservedQty   = -406.1760   
ENERGY 
Total     = -366.8610     Kinetic   = 1532.7240     Potential = -1899.5850  
VDW       = -1899.5850    QQ        = 0.0000        Bond      = 0.0000      
BondAngle = 0.0000        Torsion   = 0.0000        Tether    = 0.0000      
VIRIAL 
Total     = -46879.0356   Constraint= 0.0000      
VDW       = -46879.0356   QQ        = 0.0000        Bond      = 0.0000      
BondAngle = 0.0000        Torsion   = 0.0000        Tether    = 0.0000      

--------------------------------------------------------------------------------

Step 3400	 Instantaneous Values
System
Temperature(K) = 240.5000    
Pressure(kbar) = 642.6367    
ConservedQty   = -393.1814   
ENERGY 
Total     = -347.3127     Kinetic   = 1532.7240     Potential = -1880.0367  
VDW       = -1880.0367    QQ        = 0.0000        Bond      = 0.0000      
BondAngle = 0.0000        Torsion   = 0.0000        Tether    = 0.0000      
VIRIAL 
Total     = -47134.1190   Constraint= 0.0000      
VDW       = -47134.1190   QQ        = 0.0000        Bond      = 0.0000      
BondAngle = 0.0000        Torsion   = 0.0000        Tether    = 0.0000      

--------------------------------------------------------------------------------

Step 3500	 Instantaneous Values
System
Temperature(K) = 240.5000    
Pressure(kbar) = 633.3760    
ConservedQty   = -444.5678   
ENERGY 
Total     = -401.3925     Kinetic   = 1532.7240     Potential = -1934.1165  
VDW       = -1934.1165    QQ        = 0.0000        Bond      = 0.0000      
BondAngle = 0.0000        Torsion   = 0.0000        Tether    = 0.0000      
VIRIAL 
Total     = -46410.7174   Constraint= 0.0000      
VDW       = -46410.7174   QQ        = 0.0000        Bond      = 0.0000      
BondAngle = 0.0000        Torsion   = 0.0000        Tether    = 0.0000      

--------------------------------------------------------------------------------

Step 3600	 Instantaneous Values
System
Temperature(K) = 240.5000    
Pressure(kbar) = 651.1464    
ConservedQty   = -353.2323   
ENERGY 
Total     = -303.3706     Kinetic   = 1532.7240     Potential = -1836.0946  
VDW       = -1836.0946    QQ        = 0.0000        Bond      = 0.0000      
BondAngle = 0.0000        Torsion   = 0.0000        Tether    = 0.0000      
VIRIAL 
Total     = -47798.8569   Constraint= 0.0000      
VDW       = -47798.8569   QQ        = 0.0000        Bond      = 0.0000      
BondAngle = 0.0000        Torsion   = 0.0000        Tether    = 0.0000      

--------------------------------------------------------------------------------

Step 3700	 Instantaneous Values
System
Temperature(K) = 240.5000    
Pressure(kbar) = 640.7309    
ConservedQty   = -404.9538   
ENERGY 
Total     = -353.0344     Kinetic   = 1532.7240     Potential = -1885.7584  
VDW       = -1885.7584    QQ        = 0.0000        Bond      = 0.0000      
BondAngle = 0.0000        Torsion   = 0.0000        Tether    = 0.0000      
VIRIAL 
Total     = -46985.2443   Constraint= 0.0000      
VDW       = -46985.2443   QQ        = 0.0000        Bond      = 0.0000      
BondAngle = 0.0000        Torsion   = 0.0000        Tether    = 0.0000      

--------------------------------------------------------------------------------

Step 3800	 Instantaneous Values
System
Temperature(K) = 240.5000    
Pressure(kbar) = 635.0793    
ConservedQty   = -436.3649   
ENERGY 
Total     = -384.2889     Kinetic   = 1532.7240     Potential = -1917.0129  
VDW       = -1917.0129    QQ        = 0.0000        Bond      = 0.0000      
BondAngle = 0.0000        Torsion   = 0.0000        Tether    = 0.0000      
VIRIAL 
Total     = -46543.7704   Constraint= 0.0000      
VDW       = -46543.7704   QQ        = 0.0000        Bond      = 0.0000      
BondAngle = 0.0000        Torsion   = 0.0000        Tether    = 0.0000      

--------------------------------------------------------------------------------

Step 3900	 Instantaneous Values
System
Temperature(K) = 240.5000    
Pressure(kbar) = 624.6477    
ConservedQty   = -496.1693   
ENERGY 
Total     = -443.5792     Kinetic   = 1532.7240     Potential = -1976.3032  
VDW       = -1976.3032    QQ        = 0.0000        Bond      = 0.0000      
BondAngle = 0.0000        Torsion   = 0.0000        Tether    = 0.0000      
VIRIAL 
Total     = -45728.9047   Constraint= 0.0000      
VDW       = -45728.9047   QQ        = 0.0000        Bond      = 0.0000      
BondAngle = 0.0000        Torsion   = 0.0000        Tether    = 0.0000      

--------------------------------------------------------------------------------

Step 4000	 Instantaneous Values
System
Temperature(K) = 240.5000    
Pressure(kbar) = 627.3201    
ConservedQty   = -473.4347   
ENERGY 
Total     = -425.5270     Kinetic   = 1532.7240     Potential = -1958.2510  
VDW       = -1958.2510    QQ        = 0.0000        Bond      = 0.0000      
BondAngle = 0.0000        Torsion   = 0.0000        Tether    = 0.0000      
VIRIAL 
Total     = -45937.6658   Constraint= 0.0000      
VDW       = -45937.6658   QQ        = 0.0000        Bond      = 0.0000      
BondAngle = 0.0000        Torsion   = 0.0000        Tether    = 0.0000      

--------------------------------------------------------------------------------

Step 4100	 Instantaneous Values
System
Temperature(K) = 240.5000    
Pressure(kbar) = 649.1016    
ConservedQty   = -363.3647   
ENERGY 
Total     = -314.1181     Kinetic   = 1532.7240     Potential = -1846.8421  
VDW       = -1846.8421    QQ        = 0.0000        Bond      = 0.0000      
BondAngle = 0.0000        Torsion   = 0.0000        Tether    = 0.0000      
VIRIAL 
Total     = -47639.1264   Constraint= 0.0000      
VDW       = -47639.1264   QQ        = 0.0000        Bond      = 0.0000      
BondAngle = 0.0000        Torsion   = 0.0000        Tether    = 0.0000      

--------------------------------------------------------------------------------

Step 4200	 Instantaneous Values
System
Temperature(K) = 240.5000    
Pressure(kbar) = 639.6090    
ConservedQty   = -416.2813   
ENERGY 
Total     = -366.9515     Kinetic   = 1532.7240     Potential = -1899.6755  
VDW       = -1899.6755    QQ        = 0.0000        Bond      = 0.0000      
BondAngle = 0.0000        Torsion   = 0.0000        Tether    = 0.0000      
VIRIAL 
Total     = -46897.6120   Constraint= 0.0000      
VDW       = -46897.6120   QQ        = 0.0000        Bond      = 0.0000      
BondAngle = 0.0000        Torsion   = 0.0000        Tether    = 0.0000      

--------------------------------------------------------------------------------

Step 4300	 Instantaneous Values
System
Temperature(K) = 240.5000    
Pressure(kbar) = 618.7032    
ConservedQty   = -522.5943   
ENERGY 
Total     = -476.7237     Kinetic   = 1532.7240     Potential = -2009.4477  
VDW       = -2009.4477    QQ        = 0.0000        Bond      = 0.0000      
BondAngle = 0.0000        Torsion   = 0.0000        Tether    = 0.0000      
VIRIAL 
Total     = -45264.5564   Constraint= 0.0000      
VDW       = -45264.5564   QQ        = 0.0000        Bond      = 0.0000      
BondAngle = 0.0000        Torsion   = 0.0000        Tether    = 0.0000      

--------------------------------------------------------------------------------

Step 4400	 Instantaneous Values
System
Temperature(K) = 240.5000    
Pressure(kbar) = 636.2947    
ConservedQty   = -426.6284   
ENERGY 
Total     = -372.1320     Kinetic   = 1532.7240     Potential = -1904.8560  
VDW       = -1904.8560    QQ        = 0.0000        Bond      = 0.0000      
BondAngle = 0.0000        Torsion   = 0.0000        Tether    = 0.0000      
VIRIAL 
Total     = -46638.7162   Constraint= 0.0000      
VDW       = -46638.7162   QQ        = 0.0000        Bond      = 0.0000      
BondAngle = 0.0000        Torsion   = 0.0000        Tether    = 0.0000      

--------------------------------------------------------------------------------

Step 4500	 Instantaneous Values
System
Temperature(K) = 240.5000    
Pressure(kbar) = 627.6731    
ConservedQty   = -482.3943   
ENERGY 
Total     = -424.7334     Kinetic   = 1532.7240     Potential = -1957.4574  
VDW       = -1957.4574    QQ        = 0.0000        Bond      = 0.0000      
BondAngle = 0.0000        Torsion   = 0.0000        Tether    = 0.0000      
VIRIAL 
Total     = -45965.2349   Constraint= 0.0000      
VDW       = -45965.2349   QQ        = 0.0000        Bond      = 0.0000      
BondAngle = 0.0000        Torsion   = 0.0000        Tether    = 0.0000      

--------------------------------------------------------------------------------

Step 4600	 Instantaneous Values
System
Temperature(K) = 240.5000    
Pressure(kbar) = 638.9907    
ConservedQty   = -410.7502   
ENERGY 
Total     = -360.3450     Kinetic   = 1532.7240     Potential = -1893.0690  
VDW       = -1893.0690    QQ        = 0.0000        Bond      = 0.0000      
BondAngle = 0.0000        Torsion   = 0.0000        Tether    = 0.0000      
VIRIAL 
Total     = -46849.3083   Constraint= 0.0000      
VDW       = -46849.3083   QQ        = 0.0000        Bond      = 0.0000      
BondAngle = 0.0000        Torsion   = 0.0000        Tether    = 0.0000      

--------------------------------------------------------------------------------

Step 4700	 Instantaneous Values
System
Temperature(K) = 240.5000    
Pressure(kbar) = 630.5283    
ConservedQty   = -465.8077   
ENERGY 
Total     = -411.5198     Kinetic   = 1532.7240     Potential = -1944.2438  
VDW       = -1944.2438    QQ        = 0.0000        Bond      = 0.0000      
BondAngle = 0.0000        Torsion   = 0.0000        Tether    = 0.0000      
VIRIAL 
Total     = -46188.2694   Constraint= 0.0000      
VDW       = -46188.2694   QQ        = 0.0000        Bond      = 0.0000      
BondAngle = 0.0000        Torsion   = 0.0000        Tether    = 0.0000      

--------------------------------------------------------------------------------

Step 4800	 Instantaneous Values
System
Temperature(K) = 240.5000    
Pressure(kbar) = 634.3310    
ConservedQty   = -449.5522   
ENERGY 
Total     = -391.5855     Kinetic   = 1532.7240     Potential = -1924.3095  
VDW       = -1924.3095    QQ        = 0.0000        Bond      = 0.0000      
BondAngle = 0.0000        Torsion   = 0.0000        Tether    = 0.0000      
VIRIAL 
Total     = -46485.3157   Constraint= 0.0000      
VDW       = -46485.3157   QQ        = 0.0000        Bond      = 0.0000      
BondAngle = 0.0000        Torsion   = 0.0000        Tether    = 0.0000      

--------------------------------------------------------------------------------

Step 4900	 Instantaneous Values
System
Temperature(K) = 240.5000    
Pressure(kbar) = 631.1277    
ConservedQty   = -464.5389   
ENERGY 
Total     = -408.3614     Kinetic   = 1532.7240     Potential = -1941.0854  
VDW       = -1941.0854    QQ        = 0.0000        Bond      = 0.0000      
BondAngle = 0.0000        Torsion   = 0.0000        Tether    = 0.0000      
VIRIAL 
Total     = -46235.0909   Constraint= 0.0000      
VDW       = -46235.0909   QQ        = 0.0000        Bond      = 0.0000      
BondAngle = 0.0000        Torsion   = 0.0000        Tether    = 0.0000      

--------------------------------------------------------------------------------

Step 5000	 Instantaneous Values
System
Temperature(K) = 240.5000    
Pressure(kbar) = 623.0479    
ConservedQty   = -504.1078   
ENERGY 
Total     = -452.2568     Kinetic   = 1532.7240     Potential = -1984.9808  
VDW       = -1984.9808    QQ        = 0.0000        Bond      = 0.0000      
BondAngle = 0.0000        Torsion   = 0.0000        Tether    = 0.0000      
VIRIAL 
Total     = -45603.9413   Constraint= 0.0000      
VDW       = -45603.9413   QQ        = 0.0000        Bond      = 0.0000      
BondAngle = 0.0000        Torsion   = 0.0000        Tether    = 0.0000      

--------------------------------------------------------------------------------

Step 5100	 Instantaneous Values
System
Temperature(K) = 240.5000    
Pressure(kbar) = 642.6354    
ConservedQty   = -407.3960   
ENERGY 
Total     = -345.8961     Kinetic   = 1532.7240     Potential = -1878.6201  
VDW       = -1878.6201    QQ        = 0.0000        Bond      = 0.0000      
BondAngle = 0.0000        Torsion   = 0.0000        Tether    = 0.0000      
VIRIAL 
Total     = -47134.0141   Constraint= 0.0000      
VDW       = -47134.0141   QQ        = 0.0000        Bond      = 0.0000      
BondAngle = 0.0000        Torsion   = 0.0000        Tether    = 0.0000      

--------------------------------------------------------------------------------

Step 5200	 Instantaneous Values
System
Temperature(K) = 240.5000    
Pressure(kbar) = 625.3240    
ConservedQty   = -497.1058   
ENERGY 
Total     = -434.5041     Kinetic   = 1532.7240     Potential = -1967.2281  
VDW       = -1967.2281    QQ        = 0.0000        Bond      = 0.0000      
BondAngle = 0.0000        Torsion   = 0.0000        Tether    = 0.0000      
VIRIAL 
Total     = -45781.7385   Constraint= 0.0000      
VDW       = -45781.7385   QQ        = 0.0000        Bond      = 0.0000      
BondAngle = 0.0000        Torsion   = 0.0000        Tether    = 0.0000      

--------------------------------------------------------------------------------

Step 5300	 Instantaneous Values
System
Temperature(K) = 240.5000    
Pressure(kbar) = 634.0896    
ConservedQty   = -457.2138   
ENERGY 
Total     = -390.8990     Kinetic   = 1532.7240     Potential = -1923.6230  
VDW       = -1923.6230    QQ        = 0.0000        Bond      = 0.0000      
BondAngle = 0.0000        Torsion   = 0.0000        Tether    = 0.0000      
VIRIAL 
Total     = -46466.4607   Constraint= 0.0000      
VDW       = -46466.4607   QQ        = 0.0000        Bond      = 0.0000      
BondAngle = 0.0000        Torsion   = 0.0000        Tether    = 0.0000      

--------------------------------------------------------------------------------

Step 5400	 Instantaneous Values
System
Temperature(K) = 240.5000    
Pressure(kbar) = 623.2805    
ConservedQty   = -513.9711   
ENERGY 
Total     = -443.2143     Kinetic   = 1532.7240     Potential = -1975.9383  
VDW       = -1975.9383    QQ        = 0.0000        Bond      = 0.0000      
BondAngle = 0.0000        Torsion   = 0.0000        Tether    = 0.0000      
VIRIAL 
Total     = -45622.1074   Constraint= 0.0000      
VDW       = -45622.1074   QQ        = 0.0000        Bond      = 0.0000      
BondAngle = 0.0000        Torsion   = 0.0000        Tether    = 0.0000      

--------------------------------------------------------------------------------

Step 5500	 Instantaneous Values
System
Temperature(K) = 240.5000    
Pressure(kbar) = 628.4658    
ConservedQty   = -508.7888   
ENERGY 
Total     = -425.0122     Kinetic   = 1532.7240     Potential = -1957.7362  
VDW       = -1957.7362    QQ        = 0.0000        Bond      = 0.0000      
BondAngle = 0.0000        Torsion   = 0.0000        Tether    = 0.0000      
VIRIAL 
Total     = -46027.1622   Constraint= 0.0000      
VDW       = -46027.1622   QQ        = 0.0000        Bond      = 0.0000      
BondAngle = 0.0000        Torsion   = 0.0000        Tether    = 0.0000      

--------------------------------------------------------------------------------

Step 5600	 Instantaneous Values
System
Temperature(K) = 240.5000    
Pressure(kbar) = 635.1492    
ConservedQty   = -466.6057   
ENERGY 
Total     = -383.5672     Kinetic   = 1532.7240     Potential = -1916.2913  
VDW       = -1916.2913    QQ        = 0.0000        Bond      = 0.0000      
BondAngle = 0.0000        Torsion   = 0.0000        Tether    = 0.0000      
VIRIAL 
Total     = -46549.2334   Constraint= 0.0000      
VDW       = -46549.2334   QQ        = 0.0000        Bond      = 0.0000      
BondAngle = 0.0000        Torsion   = 0.0000        Tether    = 0.0000      

--------------------------------------------------------------------------------

Step 5700	 Instantaneous Values
System
Temperature(K) = 240.5000    
Pressure(kbar) = 638.1350    
ConservedQty   = -445.9011   
ENERGY 
Total     = -371.3798     Kinetic   = 1532.7240     Potential = -1904.1039  
VDW       = -1904.1039    QQ        = 0.0000        Bond      = 0.0000      
BondAngle = 0.0000        Torsion   = 0.0000        Tether    = 0.0000      
VIRIAL 
Total     = -46782.4715   Constraint= 0.0000      
VDW       = -46782.4715   QQ        = 0.0000        Bond      = 0.0000      
BondAngle = 0.0000        Torsion   = 0.0000        Tether    = 0.0000      

--------------------------------------------------------------------------------

Step 5800	 Instantaneous Values
System
Temperature(K) = 240.5000    
Pressure(kbar) = 641.5567    
ConservedQty   = -425.0938   
ENERGY 
Total     = -347.7547     Kinetic   = 1532.7240     Potential = -1880.4787  
VDW       = -1880.4787    QQ        = 0.0000        Bond      = 0.0000      
BondAngle = 0.0000        Torsion   = 0.0000        Tether    = 0.0000      
VIRIAL 
Total     = -47049.7577   Constraint= 0.0000      
VDW       = -47049.7577   QQ        = 0.0000        Bond      = 0.0000      
BondAngle = 0.0000        Torsion   = 0.0000        Tether    = 0.0000      

--------------------------------------------------------------------------------

Step 5900	 Instantaneous Values
System
Temperature(K) = 240.5000    
Pressure(kbar) = 647.4610    
ConservedQty   = -398.3602   
ENERGY 
Total     = -320.3144     Kinetic   = 1532.7240     Potential = -1853.0384  
VDW       = -1853.0384    QQ        = 0.0000        Bond      = 0.0000      
BondAngle = 0.0000        Torsion   = 0.0000        Tether    = 0.0000      
VIRIAL 
Total     = -47510.9686   Constraint= 0.0000      
VDW       = -47510.9686   QQ        = 0.0000        Bond      = 0.0000      
BondAngle = 0.0000        Torsion   = 0.0000        Tether    = 0.0000      

--------------------------------------------------------------------------------

Step 6000	 Instantaneous Values
System
Temperature(K) = 240.5000    
Pressure(kbar) = 637.4283    
ConservedQty   = -446.2331   
ENERGY 
Total     = -377.1393     Kinetic   = 1532.7240     Potential = -1909.8633  
VDW       = -1909.8633    QQ        = 0.0000        Bond      = 0.0000      
BondAngle = 0.0000        Torsion   = 0.0000        Tether    = 0.0000      
VIRIAL 
Total     = -46727.2680   Constraint= 0.0000      
VDW       = -46727.2680   QQ        = 0.0000        Bond      = 0.0000      
BondAngle = 0.0000        Torsion   = 0.0000        Tether    = 0.0000      

--------------------------------------------------------------------------------

Step 6100	 Instantaneous Values
System
Temperature(K) = 240.5000    
Pressure(kbar) = 628.8663    
ConservedQty   = -487.1058   
ENERGY 
Total     = -415.6978     Kinetic   = 1532.7240     Potential = -1948.4218  
VDW       = -1948.4218    QQ        = 0.0000        Bond      = 0.0000      
BondAngle = 0.0000        Torsion   = 0.0000        Tether    = 0.0000      
VIRIAL 
Total     = -46058.4447   Constraint= 0.0000      
VDW       = -46058.4447   QQ        = 0.0000        Bond      = 0.0000      
BondAngle = 0.0000        Torsion   = 0.0000        Tether    = 0.0000      

--------------------------------------------------------------------------------

Step 6200	 Instantaneous Values
System
Temperature(K) = 240.5000    
Pressure(kbar) = 620.4747    
ConservedQty   = -535.7063   
ENERGY 
Total     = -466.7184     Kinetic   = 1532.7240     Potential = -1999.4424  
VDW       = -1999.4424    QQ        = 0.0000        Bond      = 0.0000      
BondAngle = 0.0000        Torsion   = 0.0000        Tether    = 0.0000      
VIRIAL 
Total     = -45402.9304   Constraint= 0.0000      
VDW       = -45402.9304   QQ        = 0.0000        Bond      = 0.0000      
BondAngle = 0.0000        Torsion   = 0.0000        Tether    = 0.0000      

--------------------------------------------------------------------------------

Step 6300	 Instantaneous Values
System
Temperature(K) = 240.5000    
Pressure(kbar) = 634.6542    
ConservedQty   = -446.5417   
ENERGY 
Total     = -378.2349     Kinetic   = 1532.7240     Potential = -1910.9589  
VDW       = -1910.9589    QQ        = 0.0000        Bond      = 0.0000      
BondAngle = 0.0000        Torsion   = 0.0000        Tether    = 0.0000      
VIRIAL 
Total     = -46510.5672   Constraint= 0.0000      
VDW       = -46510.5672   QQ        = 0.0000        Bond      = 0.0000      
BondAngle = 0.0000        Torsion   = 0.0000        Tether    = 0.0000      

--------------------------------------------------------------------------------

Step 6400	 Instantaneous Values
System
Temperature(K) = 240.5000    
Pressure(kbar) = 633.9918    
ConservedQty   = -460.5728   
ENERGY 
Total     = -391.5139     Kinetic   = 1532.7240     Potential = -1924.2379  
VDW       = -1924.2379    QQ        = 0.0000        Bond      = 0.0000      
BondAngle = 0.0000        Torsion   = 0.0000        Tether    = 0.0000      
VIRIAL 
Total     = -46458.8195   Constraint= 0.0000      
VDW       = -46458.8195   QQ        = 0.0000        Bond      = 0.0000      
BondAngle = 0.0000        Torsion   = 0.0000        Tether    = 0.0000      

--------------------------------------------------------------------------------

Step 6500	 Instantaneous Values
System
Temperature(K) = 240.5000    
Pressure(kbar) = 628.7544    
ConservedQty   = -476.7420   
ENERGY 
Total     = -414.8583     Kinetic   = 1532.7240     Potential = -1947.5823  
VDW       = -1947.5823    QQ        = 0.0000        Bond      = 0.0000      
BondAngle = 0.0000        Torsion   = 0.0000        Tether    = 0.0000      
VIRIAL 
Total     = -46049.7005   Constraint= 0.0000      
VDW       = -46049.7005   QQ        = 0.0000        Bond      = 0.0000      
BondAngle = 0.0000        Torsion   = 0.0000        Tether    = 0.0000      

--------------------------------------------------------------------------------

Step 6600	 Instantaneous Values
System
Temperature(K) = 240.5000    
Pressure(kbar) = 630.9689    
ConservedQty   = -483.9233   
ENERGY 
Total     = -414.2820     Kinetic   = 1532.7240     Potential = -1947.0060  
VDW       = -1947.0060    QQ        = 0.0000        Bond      = 0.0000      
BondAngle = 0.0000        Torsion   = 0.0000        Tether    = 0.0000      
VIRIAL 
Total     = -46222.6877   Constraint= 0.0000      
VDW       = -46222.6877   QQ        = 0.0000        Bond      = 0.0000      
BondAngle = 0.0000        Torsion   = 0.0000        Tether    = 0.0000      

--------------------------------------------------------------------------------

Step 6700	 Instantaneous Values
System
Temperature(K) = 240.5000    
Pressure(kbar) = 635.2585    
ConservedQty   = -453.4641   
ENERGY 
Total     = -387.7676     Kinetic   = 1532.7240     Potential = -1920.4916  
VDW       = -1920.4916    QQ        = 0.0000        Bond      = 0.0000      
BondAngle = 0.0000        Torsion   = 0.0000        Tether    = 0.0000      
VIRIAL 
Total     = -46557.7736   Constraint= 0.0000      
VDW       = -46557.7736   QQ        = 0.0000        Bond      = 0.0000      
BondAngle = 0.0000        Torsion   = 0.0000        Tether    = 0.0000      

--------------------------------------------------------------------------------

Step 6800	 Instantaneous Values
System
Temperature(K) = 240.5000    
Pressure(kbar) = 635.3028    
ConservedQty   = -447.0809   
ENERGY 
Total     = -383.8056     Kinetic   = 1532.7240     Potential = -1916.5296  
VDW       = -1916.5296    QQ        = 0.0000        Bond      = 0.0000      
BondAngle = 0.0000        Torsion   = 0.0000        Tether    = 0.0000      
VIRIAL 
Total     = -46561.2342   Constraint= 0.0000      
VDW       = -46561.2342   QQ        = 0.0000        Bond      = 0.0000      
BondAngle = 0.0000        Torsion   = 0.0000        Tether    = 0.0000      

--------------------------------------------------------------------------------

Step 6900	 Instantaneous Values
System
Temperature(K) = 240.5000    
Pressure(kbar) = 622.2727    
ConservedQty   = -517.8130   
ENERGY 
Total     = -455.1385     Kinetic   = 1532.7240     Potential = -1987.8626  
VDW       = -1987.8626    QQ        = 0.0000        Bond      = 0.0000      
BondAngle = 0.0000        Torsion   = 0.0000        Tether    = 0.0000      
VIRIAL 
Total     = -45543.3841   Constraint= 0.0000      
VDW       = -45543.3841   QQ        = 0.0000        Bond      = 0.0000      
BondAngle = 0.0000        Torsion   = 0.0000        Tether    = 0.0000      

--------------------------------------------------------------------------------

Step 7000	 Instantaneous Values
System
Temperature(K) = 240.5000    
Pressure(kbar) = 626.7266    
ConservedQty   = -494.8763   
ENERGY 
Total     = -435.1744     Kinetic   = 1532.7240     Potential = -1967.8984  
VDW       = -1967.8984    QQ        = 0.0000        Bond      = 0.0000      
BondAngle = 0.0000        Torsion   = 0.0000        Tether    = 0.0000      
VIRIAL 
Total     = -45891.3007   Constraint= 0.0000      
VDW       = -45891.3007   QQ        = 0.0000        Bond      = 0.0000      
BondAngle = 0.0000        Torsion   = 0.0000        Tether    = 0.0000      

--------------------------------------------------------------------------------

Step 7100	 Instantaneous Values
System
Temperature(K) = 240.5000    
Pressure(kbar) = 644.4024    
ConservedQty   = -390.6555   
ENERGY 
Total     = -327.9264     Kinetic   = 1532.7240     Potential = -1860.6504  
VDW       = -1860.6504    QQ        = 0.0000        Bond      = 0.0000      
BondAngle = 0.0000        Torsion   = 0.0000        Tether    = 0.0000      
VIRIAL 
Total     = -47272.0430   Constraint= 0.0000      
VDW       = -47272.0430   QQ        = 0.0000        Bond      = 0.0000      
BondAngle = 0.0000        Torsion   = 0.0000        Tether    = 0.0000      

--------------------------------------------------------------------------------

Step 7200	 Instantaneous Values
System
Temperature(K) = 240.5000    
Pressure(kbar) = 618.6689    
ConservedQty   = -535.7841   
ENERGY 
Total     = -469.5996     Kinetic   = 1532.7240     Potential = -2002.3236  
VDW       = -2002.3236    QQ        = 0.0000        Bond      = 0.0000      
BondAngle = 0.0000        Torsion   = 0.0000        Tether    = 0.0000      
VIRIAL 
Total     = -45261.8744   Constraint= 0.0000      
VDW       = -45261.8744   QQ        = 0.0000        Bond      = 0.0000      
BondAngle = 0.0000        Torsion   = 0.0000        Tether    = 0.0000      

--------------------------------------------------------------------------------

Step 7300	 Instantaneous Values
System
Temperature(K) = 240.5000    
Pressure(kbar) = 642.8528    
ConservedQty   = -417.9706   
ENERGY 
Total     = -343.9422     Kinetic   = 1532.7240     Potential = -1876.6662  
VDW       = -1876.6662    QQ        = 0.0000        Bond      = 0.0000      
BondAngle = 0.0000        Torsion   = 0.0000        Tether    = 0.0000      
VIRIAL 
Total     = -47150.9955   Constraint= 0.0000      
VDW       = -47150.9955   QQ        = 0.0000        Bond      = 0.0000      
BondAngle = 0.0000        Torsion   = 0.0000        Tether    = 0.0000      

--------------------------------------------------------------------------------

Step 7400	 Instantaneous Values
System
Temperature(K) = 240.5000    
Pressure(kbar) = 633.3645    
ConservedQty   = -481.3372   
ENERGY 
Total     = -400.7728     Kinetic   = 1532.7240     Potential = -1933.4968  
VDW       = -1933.4968    QQ        = 0.0000        Bond      = 0.0000      
BondAngle = 0.0000        Torsion   = 0.0000        Tether    = 0.0000      
VIRIAL 
Total     = -46409.8215   Constraint= 0.0000      
VDW       = -46409.8215   QQ        = 0.0000        Bond      = 0.0000      
BondAngle = 0.0000        Torsion   = 0.0000        Tether    = 0.0000      

--------------------------------------------------------------------------------

Step 7500	 Instantaneous Values
System
Temperature(K) = 240.5000    
Pressure(kbar) = 632.8693    
ConservedQty   = -476.1811   
ENERGY 
Total     = -400.3268     Kinetic   = 1532.7240     Potential = -1933.0508  
VDW       = -1933.0508    QQ        = 0.0000        Bond      = 0.0000      
BondAngle = 0.0000        Torsion   = 0.0000        Tether    = 0.0000      
VIRIAL 
Total     = -46371.1402   Constraint= 0.0000      
VDW       = -46371.1402   QQ        = 0.0000        Bond      = 0.0000      
BondAngle = 0.0000        Torsion   = 0.0000        Tether    = 0.0000      

--------------------------------------------------------------------------------

Step 7600	 Instantaneous Values
System
Temperature(K) = 240.5000    
Pressure(kbar) = 627.0873    
ConservedQty   = -508.5249   
ENERGY 
Total     = -433.0232     Kinetic   = 1532.7240     Potential = -1965.7472  
VDW       = -1965.7472    QQ        = 0.0000        Bond      = 0.0000      
BondAngle = 0.0000        Torsion   = 0.0000        Tether    = 0.0000      
VIRIAL 
Total     = -45919.4758   Constraint= 0.0000      
VDW       = -45919.4758   QQ        = 0.0000        Bond      = 0.0000      
BondAngle = 0.0000        Torsion   = 0.0000        Tether    = 0.0000      

--------------------------------------------------------------------------------

Step 7700	 Instantaneous Values
System
Temperature(K) = 240.5000    
Pressure(kbar) = 628.0547    
ConservedQty   = -502.8943   
ENERGY 
Total     = -421.5394     Kinetic   = 1532.7240     Potential = -1954.2634  
VDW       = -1954.2634    QQ        = 0.0000        Bond      = 0.0000      
BondAngle = 0.0000        Torsion   = 0.0000        Tether    = 0.0000      
VIRIAL 
Total     = -45995.0490   Constraint= 0.0000      
VDW       = -45995.0490   QQ        = 0.0000        Bond      = 0.0000      
BondAngle = 0.0000        Torsion   = 0.0000        Tether    = 0.0000      

--------------------------------------------------------------------------------

Step 7800	 Instantaneous Values
System
Temperature(K) = 240.5000    
Pressure(kbar) = 632.0919    
ConservedQty   = -487.1497   
ENERGY 
Total     = -403.0173     Kinetic   = 1532.7240     Potential = -1935.7413  
VDW       = -1935.7413    QQ        = 0.0000        Bond      = 0.0000      
BondAngle = 0.0000        Torsion   = 0.0000        Tether    = 0.0000      
VIRIAL 
Total     = -46310.4103   Constraint= 0.0000      
VDW       = -46310.4103   QQ        = 0.0000        Bond      = 0.0000      
BondAngle = 0.0000        Torsion   = 0.0000        Tether    = 0.0000      

--------------------------------------------------------------------------------

Step 7900	 Instantaneous Values
System
Temperature(K) = 240.5000    
Pressure(kbar) = 630.6276    
ConservedQty   = -481.8027   
ENERGY 
Total     = -407.9309     Kinetic   = 1532.7240     Potential = -1940.6549  
VDW       = -1940.6549    QQ        = 0.0000        Bond      = 0.0000      
BondAngle = 0.0000        Torsion   = 0.0000        Tether    = 0.0000      
VIRIAL 
Total     = -46196.0308   Constraint= 0.0000      
VDW       = -46196.0308   QQ        = 0.0000        Bond      = 0.0000      
BondAngle = 0.0000        Torsion   = 0.0000        Tether    = 0.0000      

--------------------------------------------------------------------------------

Step 8000	 Instantaneous Values
System
Temperature(K) = 240.5000    
Pressure(kbar) = 640.7599    
ConservedQty   = -414.0484   
ENERGY 
Total     = -353.1456     Kinetic   = 1532.7240     Potential = -1885.8696  
VDW       = -1885.8696    QQ        = 0.0000        Bond      = 0.0000      
BondAngle = 0.0000        Torsion   = 0.0000        Tether    = 0.0000      
VIRIAL 
Total     = -46987.5122   Constraint= 0.0000      
VDW       = -46987.5122   QQ        = 0.0000        Bond      = 0.0000      
BondAngle = 0.0000        Torsion   = 0.0000        Tether    = 0.0000      

--------------------------------------------------------------------------------

Step 8100	 Instantaneous Values
System
Temperature(K) = 240.5000    
Pressure(kbar) = 650.5044    
ConservedQty   = -359.3594   
ENERGY 
Total     = -297.3987     Kinetic   = 1532.7240     Potential = -1830.1227  
VDW       = -1830.1227    QQ        = 0.0000        Bond      = 0.0000      
BondAngle = 0.0000        Torsion   = 0.0000        Tether    = 0.0000      
VIRIAL 
Total     = -47748.7017   Constraint= 0.0000      
VDW       = -47748.7017   QQ        = 0.0000        Bond      = 0.0000      
BondAngle = 0.0000        Torsion   = 0.0000        Tether    = 0.0000      

--------------------------------------------------------------------------------

Step 8200	 Instantaneous Values
System
Temperature(K) = 240.5000    
Pressure(kbar) = 621.9655    
ConservedQty   = -518.8576   
ENERGY 
Total     = -458.1233     Kinetic   = 1532.7240     Potential = -1990.8473  
VDW       = -1990.8473    QQ        = 0.0000        Bond      = 0.0000      
BondAngle = 0.0000        Torsion   = 0.0000        Tether    = 0.0000      
VIRIAL 
Total     = -45519.3890   Constraint= 0.0000      
VDW       = -45519.3890   QQ        = 0.0000        Bond      = 0.0000      
BondAngle = 0.0000        Torsion   = 0.0000        Tether    = 0.0000      

--------------------------------------------------------------------------------

Step 8300	 Instantaneous Values
System
Temperature(K) = 240.5000    
Pressure(kbar) = 617.5161    
ConservedQty   = -540.6451   
ENERGY 
Total     = -481.1845     Kinetic   = 1532.7240     Potential = -2013.9085  
VDW       = -2013.9085    QQ        = 0.0000        Bond      = 0.0000      
BondAngle = 0.0000        Torsion   = 0.0000        Tether    = 0.0000      
VIRIAL 
Total     = -45171.8226   Constraint= 0.0000      
VDW       = -45171.8226   QQ        = 0.0000        Bond      = 0.0000      
BondAngle = 0.0000        Torsion   = 0.0000        Tether    = 0.0000      

--------------------------------------------------------------------------------

Step 8400	 Instantaneous Values
System
Temperature(K) = 240.5000    
Pressure(kbar) = 631.0490    
ConservedQty   = -453.3175   
ENERGY 
Total     = -398.1268     Kinetic   = 1532.7240     Potential = -1930.8509  
VDW       = -1930.8509    QQ        = 0.0000        Bond      = 0.0000      
BondAngle = 0.0000        Torsion   = 0.0000        Tether    = 0.0000      
VIRIAL 
Total     = -46228.9457   Constraint= 0.0000      
VDW       = -46228.9457   QQ        = 0.0000        Bond      = 0.0000      
BondAngle = 0.0000        Torsion   = 0.0000        Tether    = 0.0000      

--------------------------------------------------------------------------------

Step 8500	 Instantaneous Values
System
Temperature(K) = 240.5000    
Pressure(kbar) = 629.7033    
ConservedQty   = -457.6071   
ENERGY 
Total     = -415.7628     Kinetic   = 1532.7240     Potential = -1948.4868  
VDW       = -1948.4868    QQ        = 0.0000        Bond      = 0.0000      
BondAngle = 0.0000        Torsion   = 0.0000        Tether    = 0.0000      
VIRIAL 
Total     = -46123.8235   Constraint= 0.0000      
VDW       = -46123.8235   QQ        = 0.0000        Bond      = 0.0000      
BondAngle = 0.0000        Torsion   = 0.0000        Tether    = 0.0000      

--------------------------------------------------------------------------------

Step 8600	 Instantaneous Values
System
Temperature(K) = 240.5000    
Pressure(kbar) = 632.5003    
ConservedQty   = -442.4426   
ENERGY 
Total     = -398.8144     Kinetic   = 1532.7240     Potential = -1931.5384  
VDW       = -1931.5384    QQ        = 0.0000        Bond      = 0.0000      
BondAngle = 0.0000        Torsion   = 0.0000        Tether    = 0.0000      
VIRIAL 
Total     = -46342.3146   Constraint= 0.0000      
VDW       = -46342.3146   QQ        = 0.0000        Bond      = 0.0000      
BondAngle = 0.0000        Torsion   = 0.0000        Tether    = 0.0000      

--------------------------------------------------------------------------------

Step 8700	 Instantaneous Values
System
Temperature(K) = 240.5000    
Pressure(kbar) = 639.1235    
ConservedQty   = -406.4097   
ENERGY 
Total     = -362.1656     Kinetic   = 1532.7240     Potential = -1894.8896  
VDW       = -1894.8896    QQ        = 0.0000        Bond      = 0.0000      
BondAngle = 0.0000        Torsion   = 0.0000        Tether    = 0.0000      
VIRIAL 
Total     = -46859.6834   Constraint= 0.0000      
VDW       = -46859.6834   QQ        = 0.0000        Bond      = 0.0000      
BondAngle = 0.0000        Torsion   = 0.0000        Tether    = 0.0000      

--------------------------------------------------------------------------------

Step 8800	 Instantaneous Values
System
Temperature(K) = 240.5000    
Pressure(kbar) = 634.6108    
ConservedQty   = -432.6357   
ENERGY 
Total     = -382.0388     Kinetic   = 1532.7240     Potential = -1914.7628  
VDW       = -1914.7628    QQ        = 0.0000        Bond      = 0.0000      
BondAngle = 0.0000        Torsion   = 0.0000        Tether    = 0.0000      
VIRIAL 
Total     = -46507.1787   Constraint= 0.0000      
VDW       = -46507.1787   QQ        = 0.0000        Bond      = 0.0000      
BondAngle = 0.0000        Torsion   = 0.0000        Tether    = 0.0000      

--------------------------------------------------------------------------------

Step 8900	 Instantaneous Values
System
Temperature(K) = 240.5000    
Pressure(kbar) = 639.9475    
ConservedQty   = -426.7238   
ENERGY 
Total     = -374.1188     Kinetic   = 1532.7240     Potential = -1906.8428  
VDW       = -1906.8428    QQ        = 0.0000        Bond      = 0.0000      
BondAngle = 0.0000        Torsion   = 0.0000        Tether    = 0.0000      
VIRIAL 
Total     = -46924.0543   Constraint= 0.0000      
VDW       = -46924.0543   QQ        = 0.0000        Bond      = 0.0000      
BondAngle = 0.0000        Torsion   = 0.0000        Tether    = 0.0000      

--------------------------------------------------------------------------------

Step 9000	 Instantaneous Values
System
Temperature(K) = 240.5000    
Pressure(kbar) = 646.2708    
ConservedQty   = -377.1828   
ENERGY 
Total     = -320.4377     Kinetic   = 1532.7240     Potential = -1853.1617  
VDW       = -1853.1617    QQ        = 0.0000        Bond      = 0.0000      
BondAngle = 0.0000        Torsion   = 0.0000        Tether    = 0.0000      
VIRIAL 
Total     = -47417.9952   Constraint= 0.0000      
VDW       = -47417.9952   QQ        = 0.0000        Bond      = 0.0000      
BondAngle = 0.0000        Torsion   = 0.0000        Tether    = 0.0000      

--------------------------------------------------------------------------------

Step 9100	 Instantaneous Values
System
Temperature(K) = 240.5000    
Pressure(kbar) = 621.7170    
ConservedQty   = -519.1784   
ENERGY 
Total     = -458.7572     Kinetic   = 1532.7240     Potential = -1991.4813  
VDW       = -1991.4813    QQ        = 0.0000        Bond      = 0.0000      
BondAngle = 0.0000        Torsion   = 0.0000        Tether    = 0.0000      
VIRIAL 
Total     = -45499.9783   Constraint= 0.0000      
VDW       = -45499.9783   QQ        = 0.0000        Bond      = 0.0000      
BondAngle = 0.0000        Torsion   = 0.0000        Tether    = 0.0000      

--------------------------------------------------------------------------------

Step 9200	 Instantaneous Values
System
Temperature(K) = 240.5000    
Pressure(kbar) = 630.5244    
ConservedQty   = -482.5818   
ENERGY 
Total     = -417.8743     Kinetic   = 1532.7240     Potential = -1950.5983  
VDW       = -1950.5983    QQ        = 0.0000        Bond      = 0.0000      
BondAngle = 0.0000        Torsion   = 0.0000        Tether    = 0.0000      
VIRIAL 
Total     = -46187.9651   Constraint= 0.0000      
VDW       = -46187.9651   QQ        = 0.0000        Bond      = 0.0000      
BondAngle = 0.0000        Torsion   = 0.0000        Tether    = 0.0000      

--------------------------------------------------------------------------------

Step 9300	 Instantaneous Values
System
Temperature(K) = 240.5000    
Pressure(kbar) = 620.9062    
ConservedQty   = -537.1319   
ENERGY 
Total     = -470.9990     Kinetic   = 1532.7240     Potential = -2003.7230  
VDW       = -2003.7230    QQ        = 0.0000        Bond      = 0.0000      
BondAngle = 0.0000        Torsion   = 0.0000        Tether    = 0.0000      
VIRIAL 
Total     = -45436.6381   Constraint= 0.0000      
VDW       = -45436.6381   QQ        = 0.0000        Bond      = 0.0000      
BondAngle = 0.0000        Torsion   = 0.0000        Tether    = 0.0000      

--------------------------------------------------------------------------------

Step 9400	 Instantaneous Values
System
Temperature(K) = 240.5000    
Pressure(kbar) = 635.5922    
ConservedQty   = -446.2794   
ENERGY 
Total     = -380.1034     Kinetic   = 1532.7240     Potential = -1912.8274  
VDW       = -1912.8274    QQ        = 0.0000        Bond      = 0.0000      
BondAngle = 0.0000        Torsion   = 0.0000        Tether    = 0.0000      
VIRIAL 
Total     = -46583.8340   Constraint= 0.0000      
VDW       = -46583.8340   QQ        = 0.0000        Bond      = 0.0000      
BondAngle = 0.0000        Torsion   = 0.0000        Tether    = 0.0000      

--------------------------------------------------------------------------------

Step 9500	 Instantaneous Values
System
Temperature(K) = 240.5000    
Pressure(kbar) = 639.0863    
ConservedQty   = -433.1306   
ENERGY 
Total     = -361.0880     Kinetic   = 1532.7240     Potential = -1893.8120  
VDW       = -1893.8120    QQ        = 0.0000        Bond      = 0.0000      
BondAngle = 0.0000        Torsion   = 0.0000        Tether    = 0.0000      
VIRIAL 
Total     = -46856.7822   Constraint= 0.0000      
VDW       = -46856.7822   QQ        = 0.0000        Bond      = 0.0000      
BondAngle = 0.0000        Torsion   = 0.0000        Tether    = 0.0000      

--------------------------------------------------------------------------------

Step 9600	 Instantaneous Values
System
Temperature(K) = 240.5000    
Pressure(kbar) = 622.5675    
ConservedQty   = -523.4281   
ENERGY 
Total     = -456.1847     Kinetic   = 1532.7240     Potential = -1988.9088  
VDW       = -1988.9088    QQ        = 0.0000        Bond      = 0.0000      
BondAngle = 0.0000        Torsion   = 0.0000        Tether    = 0.0000      
VIRIAL 
Total     = -45566.4095   Constraint= 0.0000      
VDW       = -45566.4095   QQ        = 0.0000        Bond      = 0.0000      
BondAngle = 0.0000        Torsion   = 0.0000        Tether    = 0.0000      

--------------------------------------------------------------------------------

Step 9700	 Instantaneous Values
System
Temperature(K) = 240.5000    
Pressure(kbar) = 636.8124    
ConservedQty   = -461.0574   
ENERGY 
Total     = -387.6779     Kinetic   = 1532.7240     Potential = -1920.4019  
VDW       = -1920.4019    QQ        = 0.0000        Bond      = 0.0000      
BondAngle = 0.0000        Torsion   = 0.0000        Tether    = 0.0000      
VIRIAL 
Total     = -46679.1525   Constraint= 0.0000      
VDW       = -46679.1525   QQ        = 0.0000        Bond      = 0.0000      
BondAngle = 0.0000        Torsion   = 0.0000        Tether    = 0.0000      

--------------------------------------------------------------------------------

Step 9800	 Instantaneous Values
System
Temperature(K) = 240.5000    
Pressure(kbar) = 627.1537    
ConservedQty   = -502.1778   
ENERGY 
Total     = -431.2956     Kinetic   = 1532.7240     Potential = -1964.0197  
VDW       = -1964.0197    QQ        = 0.0000        Bond      = 0.0000      
BondAngle = 0.0000        Torsion   = 0.0000        Tether    = 0.0000      
VIRIAL 
Total     = -45924.6647   Constraint= 0.0000      
VDW       = -45924.6647   QQ        = 0.0000        Bond      = 0.0000      
BondAngle = 0.0000        Torsion   = 0.0000        Tether    = 0.0000      

--------------------------------------------------------------------------------

Step 9900	 Instantaneous Values
System
Temperature(K) = 240.5000    
Pressure(kbar) = 633.1762    
ConservedQty   = -470.1049   
ENERGY 
Total     = -394.2746     Kinetic   = 1532.7240     Potential = -1926.9986  
VDW       = -1926.9986    QQ        = 0.0000        Bond      = 0.0000      
BondAngle = 0.0000        Torsion   = 0.0000        Tether    = 0.0000      
VIRIAL 
Total     = -46395.1085   Constraint= 0.0000      
VDW       = -46395.1085   QQ        = 0.0000        Bond      = 0.0000      
BondAngle = 0.0000        Torsion   = 0.0000        Tether    = 0.0000      

--------------------------------------------------------------------------------

Step 10000	 Instantaneous Values
System
Temperature(K) = 240.5000    
Pressure(kbar) = 637.7573    
ConservedQty   = -438.0490   
ENERGY 
Total     = -359.7763     Kinetic   = 1532.7240     Potential = -1892.5003  
VDW       = -1892.5003    QQ        = 0.0000        Bond      = 0.0000      
BondAngle = 0.0000        Torsion   = 0.0000        Tether    = 0.0000      
VIRIAL 
Total     = -46752.9628   Constraint= 0.0000      
VDW       = -46752.9628   QQ        = 0.0000        Bond      = 0.0000      
BondAngle = 0.0000        Torsion   = 0.0000        Tether    = 0.0000      

--------------------------------------------------------------------------------

Step 10100	 Instantaneous Values
System
Temperature(K) = 231.3223    
Pressure(kbar) = 641.1762    
ConservedQty   = -438.0734   
ENERGY 
Total     = -402.4861     Kinetic   = 1474.2339     Potential = -1876.7199  
VDW       = -1876.7199    QQ        = 0.0000        Bond      = 0.0000      
BondAngle = 0.0000        Torsion   = 0.0000        Tether    = 0.0000      
VIRIAL 
Total     = -47137.0130   Constraint= 0.0000      
VDW       = -47137.0130   QQ        = 0.0000        Bond      = 0.0000      
BondAngle = 0.0000        Torsion   = 0.0000        Tether    = 0.0000      

MeanSquaredDisplacement
Species1
Atom 1: 0.0681902 
--------------------------------------------------------------------------------

Step 10200	 Instantaneous Values
System
Temperature(K) = 239.4619    
Pressure(kbar) = 641.8146    
ConservedQty   = -438.7107   
ENERGY 
Total     = -350.4273     Kinetic   = 1526.1083     Potential = -1876.5357  
VDW       = -1876.5357    QQ        = 0.0000        Bond      = 0.0000      
BondAngle = 0.0000        Torsion   = 0.0000        Tether    = 0.0000      
VIRIAL 
Total     = -47083.1322   Constraint= 0.0000      
VDW       = -47083.1322   QQ        = 0.0000        Bond      = 0.0000      
BondAngle = 0.0000        Torsion   = 0.0000        Tether    = 0.0000      

MeanSquaredDisplacement
Species1
Atom 1: 0.101408 
--------------------------------------------------------------------------------

Step 10300	 Instantaneous Values
System
Temperature(K) = 234.6739    
Pressure(kbar) = 632.4652    
ConservedQty   = -438.4565   
ENERGY 
Total     = -437.5496     Kinetic   = 1495.5938     Potential = -1933.1434  
VDW       = -1933.1434    QQ        = 0.0000        Bond      = 0.0000      
BondAngle = 0.0000        Torsion   = 0.0000        Tether    = 0.0000      
VIRIAL 
Total     = -46413.8293   Constraint= 0.0000      
VDW       = -46413.8293   QQ        = 0.0000        Bond      = 0.0000      
BondAngle = 0.0000        Torsion   = 0.0000        Tether    = 0.0000      

MeanSquaredDisplacement
Species1
Atom 1: 0.130715 
--------------------------------------------------------------------------------

Step 10400	 Instantaneous Values
System
Temperature(K) = 245.5188    
Pressure(kbar) = 632.1760    
ConservedQty   = -439.3590   
ENERGY 
Total     = -366.6924     Kinetic   = 1564.7095     Potential = -1931.4019  
VDW       = -1931.4019    QQ        = 0.0000        Bond      = 0.0000      
BondAngle = 0.0000        Torsion   = 0.0000        Tether    = 0.0000      
VIRIAL 
Total     = -46253.0127   Constraint= 0.0000      
VDW       = -46253.0127   QQ        = 0.0000        Bond      = 0.0000      
BondAngle = 0.0000        Torsion   = 0.0000        Tether    = 0.0000      

MeanSquaredDisplacement
Species1
Atom 1: 0.161105 
--------------------------------------------------------------------------------

Step 10500	 Instantaneous Values
System
Temperature(K) = 233.8142    
Pressure(kbar) = 644.9445    
ConservedQty   = -438.7776   
ENERGY 
Total     = -362.6557     Kinetic   = 1490.1147     Potential = -1852.7704  
VDW       = -1852.7704    QQ        = 0.0000        Bond      = 0.0000      
BondAngle = 0.0000        Torsion   = 0.0000        Tether    = 0.0000      
VIRIAL 
Total     = -47399.6105   Constraint= 0.0000      
VDW       = -47399.6105   QQ        = 0.0000        Bond      = 0.0000      
BondAngle = 0.0000        Torsion   = 0.0000        Tether    = 0.0000      

MeanSquaredDisplacement
Species1
Atom 1: 0.203651 
--------------------------------------------------------------------------------

Step 10600	 Instantaneous Values
System
Temperature(K) = 243.0882    
Pressure(kbar) = 621.5523    
ConservedQty   = -439.2137   
ENERGY 
Total     = -443.9471     Kinetic   = 1549.2191     Potential = -1993.1661  
VDW       = -1993.1661    QQ        = 0.0000        Bond      = 0.0000      
BondAngle = 0.0000        Torsion   = 0.0000        Tether    = 0.0000      
VIRIAL 
Total     = -45454.1193   Constraint= 0.0000      
VDW       = -45454.1193   QQ        = 0.0000        Bond      = 0.0000      
BondAngle = 0.0000        Torsion   = 0.0000        Tether    = 0.0000      

MeanSquaredDisplacement
Species1
Atom 1: 0.235713 
--------------------------------------------------------------------------------

Step 10700	 Instantaneous Values
System
Temperature(K) = 239.9605    
Pressure(kbar) = 632.3778    
ConservedQty   = -439.1341   
ENERGY 
Total     = -397.0631     Kinetic   = 1529.2856     Potential = -1926.3488  
VDW       = -1926.3488    QQ        = 0.0000        Bond      = 0.0000      
BondAngle = 0.0000        Torsion   = 0.0000        Tether    = 0.0000      
VIRIAL 
Total     = -46339.6190   Constraint= 0.0000      
VDW       = -46339.6190   QQ        = 0.0000        Bond      = 0.0000      
BondAngle = 0.0000        Torsion   = 0.0000        Tether    = 0.0000      

MeanSquaredDisplacement
Species1
Atom 1: 0.273962 
--------------------------------------------------------------------------------

Step 10800	 Instantaneous Values
System
Temperature(K) = 241.4317    
Pressure(kbar) = 629.7879    
ConservedQty   = -438.6182   
ENERGY 
Total     = -411.2481     Kinetic   = 1538.6616     Potential = -1949.9097  
VDW       = -1949.9097    QQ        = 0.0000        Bond      = 0.0000      
BondAngle = 0.0000        Torsion   = 0.0000        Tether    = 0.0000      
VIRIAL 
Total     = -46118.5568   Constraint= 0.0000      
VDW       = -46118.5568   QQ        = 0.0000        Bond      = 0.0000      
BondAngle = 0.0000        Torsion   = 0.0000        Tether    = 0.0000      

MeanSquaredDisplacement
Species1
Atom 1: 0.323763 
--------------------------------------------------------------------------------

Step 10900	 Instantaneous Values
System
Temperature(K) = 243.3599    
Pressure(kbar) = 638.8407    
ConservedQty   = -438.0564   
ENERGY 
Total     = -344.5388     Kinetic   = 1550.9502     Potential = -1895.4891  
VDW       = -1895.4891    QQ        = 0.0000        Bond      = 0.0000      
BondAngle = 0.0000        Torsion   = 0.0000        Tether    = 0.0000      
VIRIAL 
Total     = -46801.1416   Constraint= 0.0000      
VDW       = -46801.1416   QQ        = 0.0000        Bond      = 0.0000      
BondAngle = 0.0000        Torsion   = 0.0000        Tether    = 0.0000      

MeanSquaredDisplacement
Species1
Atom 1: 0.344201 
--------------------------------------------------------------------------------

Step 11000	 Instantaneous Values
System
Temperature(K) = 241.8413    
Pressure(kbar) = 616.2519    
ConservedQty   = -438.7405   
ENERGY 
Total     = -480.6596     Kinetic   = 1541.2720     Potential = -2021.9316  
VDW       = -2021.9316    QQ        = 0.0000        Bond      = 0.0000      
BondAngle = 0.0000        Torsion   = 0.0000        Tether    = 0.0000      
VIRIAL 
Total     = -45055.9723   Constraint= 0.0000      
VDW       = -45055.9723   QQ        = 0.0000        Bond      = 0.0000      
BondAngle = 0.0000        Torsion   = 0.0000        Tether    = 0.0000      

MeanSquaredDisplacement
Species1
Atom 1: 0.373431 
--------------------------------------------------------------------------------

Step 11000	Averages
System
CELL
   A          B          C          Alpha      Beta       Gamma   
    7.5280     7.5280     7.5280    90.0000    90.0000    90.0000
Lattice vectors
   7.5280000000e+00    0.0000000000e+00    0.0000000000e+00
   6.1230317691e-38    7.5280000000e+00    0.0000000000e+00
   6.1230317691e-38    6.1230317691e-38    7.5280000000e+00
Cell Volume: 426.618   
Cell Type: Cubic    PBCType: CUBIC

Temperature(K) = 239.4473    
Pressure(kbar) = 633.1387    
ConservedQty   = -438.7140   
ENERGY 
Total     = -399.7268     Kinetic   = 1526.0149     Potential = -1925.7417  
VDW       = -1925.7417    QQ        = 0.0000        Bond      = 0.0000      
BondAngle = 0.0000        Torsion   = 0.0000        Tether    = 0.0000      
VIRIAL 
Total     = -46405.6007   Constraint= 0.0000      
VDW       = -46405.6007   QQ        = 0.0000        Bond      = 0.0000      
BondAngle = 0.0000        Torsion   = 0.0000        Tether    = 0.0000      

--------------------------------------------------------------------------------

--------------------------------------------------------------------------------

Step 11100	 Instantaneous Values
System
Temperature(K) = 243.8753    
Pressure(kbar) = 642.0649    
ConservedQty   = -438.6673   
ENERGY 
Total     = -332.4886     Kinetic   = 1554.2354     Potential = -1886.7239  
VDW       = -1886.7239    QQ        = 0.0000        Bond      = 0.0000      
BondAngle = 0.0000        Torsion   = 0.0000        Tether    = 0.0000      
VIRIAL 
Total     = -47046.4319   Constraint= 0.0000      
VDW       = -47046.4319   QQ        = 0.0000        Bond      = 0.0000      
BondAngle = 0.0000        Torsion   = 0.0000        Tether    = 0.0000      

MeanSquaredDisplacement
Species1
Atom 1: 0.383011 
--------------------------------------------------------------------------------

Step 11200	 Instantaneous Values
System
Temperature(K) = 246.6249    
Pressure(kbar) = 631.1543    
ConservedQty   = -438.9393   
ENERGY 
Total     = -368.3326     Kinetic   = 1571.7582     Potential = -1940.0908  
VDW       = -1940.0908    QQ        = 0.0000        Bond      = 0.0000      
BondAngle = 0.0000        Torsion   = 0.0000        Tether    = 0.0000      
VIRIAL 
Total     = -46159.1061   Constraint= 0.0000      
VDW       = -46159.1061   QQ        = 0.0000        Bond      = 0.0000      
BondAngle = 0.0000        Torsion   = 0.0000        Tether    = 0.0000      

MeanSquaredDisplacement
Species1
Atom 1: 0.413792 
--------------------------------------------------------------------------------

Step 11300	 Instantaneous Values
System
Temperature(K) = 233.0309    
Pressure(kbar) = 634.2677    
ConservedQty   = -437.6206   
ENERGY 
Total     = -427.7137     Kinetic   = 1485.1226     Potential = -1912.8363  
VDW       = -1912.8363    QQ        = 0.0000        Bond      = 0.0000      
BondAngle = 0.0000        Torsion   = 0.0000        Tether    = 0.0000      
VIRIAL 
Total     = -46575.5737   Constraint= 0.0000      
VDW       = -46575.5737   QQ        = 0.0000        Bond      = 0.0000      
BondAngle = 0.0000        Torsion   = 0.0000        Tether    = 0.0000      

MeanSquaredDisplacement
Species1
Atom 1: 0.459094 
--------------------------------------------------------------------------------

Step 11400	 Instantaneous Values
System
Temperature(K) = 239.7068    
Pressure(kbar) = 638.8442    
ConservedQty   = -437.8714   
ENERGY 
Total     = -370.8304     Kinetic   = 1527.6689     Potential = -1898.4994  
VDW       = -1898.4994    QQ        = 0.0000        Bond      = 0.0000      
BondAngle = 0.0000        Torsion   = 0.0000        Tether    = 0.0000      
VIRIAL 
Total     = -46847.9791   Constraint= 0.0000      
[...]
VDW       = -2545.2477    QQ        = 0.0000        Bond      = 0.0000      
BondAngle = 0.0000        Torsion   = 0.0000        Tether    = 0.0000      
VIRIAL 
Total     = -37521.9995   Constraint= 0.0000      
VDW       = -37521.9995   QQ        = 0.0000        Bond      = 0.0000      
BondAngle = 0.0000        Torsion   = 0.0000        Tether    = 0.0000      

MeanSquaredDisplacement
Species1
Atom 1: 15.9598 
--------------------------------------------------------------------------------

Step 58000	 Instantaneous Values
System
Temperature(K) = 255.5406    
Pressure(kbar) = 558.9897    
ConservedQty   = -437.0909   
ENERGY 
Total     = -716.7447     Kinetic   = 1628.5790     Potential = -2345.3237  
VDW       = -2345.3237    QQ        = 0.0000        Bond      = 0.0000      
BondAngle = 0.0000        Torsion   = 0.0000        Tether    = 0.0000      
VIRIAL 
Total     = -40408.3215   Constraint= 0.0000      
VDW       = -40408.3215   QQ        = 0.0000        Bond      = 0.0000      
BondAngle = 0.0000        Torsion   = 0.0000        Tether    = 0.0000      

MeanSquaredDisplacement
Species1
Atom 1: 15.9865 
--------------------------------------------------------------------------------

Step 58000	Averages
System
CELL
   A          B          C          Alpha      Beta       Gamma   
    7.5280     7.5280     7.5280    90.0000    90.0000    90.0000
Lattice vectors
   7.5280000000e+00    0.0000000000e+00    0.0000000000e+00
   1.2756316186e-39    7.5280000000e+00    0.0000000000e+00
   1.2756316186e-39    1.2756316186e-39    7.5280000000e+00
Cell Volume: 426.618   
Cell Type: Cubic    PBCType: CUBIC

Temperature(K) = 240.1254    
Pressure(kbar) = 630.2725    
ConservedQty   = -437.6782   
ENERGY 
Total     = -413.9586     Kinetic   = 1530.3369     Potential = -1944.2954  
VDW       = -1944.2954    QQ        = 0.0000        Bond      = 0.0000      
BondAngle = 0.0000        Torsion   = 0.0000        Tether    = 0.0000      
VIRIAL 
Total     = -46173.0650   Constraint= 0.0000      
VDW       = -46173.0650   QQ        = 0.0000        Bond      = 0.0000      
BondAngle = 0.0000        Torsion   = 0.0000        Tether    = 0.0000      

--------------------------------------------------------------------------------

--------------------------------------------------------------------------------

Step 58100	 Instantaneous Values
System
Temperature(K) = 223.1161    
Pressure(kbar) = 538.6048    
ConservedQty   = -436.9013   
ENERGY 
Total     = -1006.4891    Kinetic   = 1421.9351     Potential = -2428.4242  
VDW       = -2428.4242    QQ        = 0.0000        Bond      = 0.0000      
BondAngle = 0.0000        Torsion   = 0.0000        Tether    = 0.0000      
VIRIAL 
Total     = -39229.2448   Constraint= 0.0000      
VDW       = -39229.2448   QQ        = 0.0000        Bond      = 0.0000      
BondAngle = 0.0000        Torsion   = 0.0000        Tether    = 0.0000      

MeanSquaredDisplacement
Species1
Atom 1: 15.9838 
--------------------------------------------------------------------------------

Step 58200	 Instantaneous Values
System
Temperature(K) = 246.2258    
Pressure(kbar) = 543.0794    
ConservedQty   = -436.4763   
ENERGY 
Total     = -855.2610     Kinetic   = 1569.2148     Potential = -2424.4759  
VDW       = -2424.4759    QQ        = 0.0000        Bond      = 0.0000      
BondAngle = 0.0000        Torsion   = 0.0000        Tether    = 0.0000      
VIRIAL 
Total     = -39284.2209   Constraint= 0.0000      
VDW       = -39284.2209   QQ        = 0.0000        Bond      = 0.0000      
BondAngle = 0.0000        Torsion   = 0.0000        Tether    = 0.0000      

MeanSquaredDisplacement
Species1
Atom 1: 15.9918 
--------------------------------------------------------------------------------

Step 58300	 Instantaneous Values
System
Temperature(K) = 241.8543    
Pressure(kbar) = 548.1527    
ConservedQty   = -434.6658   
ENERGY 
Total     = -850.2393     Kinetic   = 1541.3549     Potential = -2391.5942  
VDW       = -2391.5942    QQ        = 0.0000        Bond      = 0.0000      
BondAngle = 0.0000        Torsion   = 0.0000        Tether    = 0.0000      
VIRIAL 
Total     = -39736.2385   Constraint= 0.0000      
VDW       = -39736.2385   QQ        = 0.0000        Bond      = 0.0000      
BondAngle = 0.0000        Torsion   = 0.0000        Tether    = 0.0000      

MeanSquaredDisplacement
Species1
Atom 1: 16.0058 
--------------------------------------------------------------------------------

Step 58400	 Instantaneous Values
System
Temperature(K) = 232.5186    
Pressure(kbar) = 514.5665    
ConservedQty   = -439.5386   
ENERGY 
Total     = -1080.0970    Kinetic   = 1481.8578     Potential = -2561.9548  
VDW       = -2561.9548    QQ        = 0.0000        Bond      = 0.0000      
BondAngle = 0.0000        Torsion   = 0.0000        Tether    = 0.0000      
VIRIAL 
Total     = -37231.6507   Constraint= 0.0000      
VDW       = -37231.6507   QQ        = 0.0000        Bond      = 0.0000      
BondAngle = 0.0000        Torsion   = 0.0000        Tether    = 0.0000      

MeanSquaredDisplacement
Species1
Atom 1: 15.9549 
--------------------------------------------------------------------------------

Step 58500	 Instantaneous Values
System
Temperature(K) = 249.2595    
Pressure(kbar) = 549.2468    
ConservedQty   = -440.5782   
ENERGY 
Total     = -806.6875     Kinetic   = 1588.5486     Potential = -2395.2361  
VDW       = -2395.2361    QQ        = 0.0000        Bond      = 0.0000      
BondAngle = 0.0000        Torsion   = 0.0000        Tether    = 0.0000      
VIRIAL 
Total     = -39727.3204   Constraint= 0.0000      
VDW       = -39727.3204   QQ        = 0.0000        Bond      = 0.0000      
BondAngle = 0.0000        Torsion   = 0.0000        Tether    = 0.0000      

MeanSquaredDisplacement
Species1
Atom 1: 15.8954 
--------------------------------------------------------------------------------

Step 58600	 Instantaneous Values
System
Temperature(K) = 230.9590    
Pressure(kbar) = 529.6911    
ConservedQty   = -439.0284   
ENERGY 
Total     = -1018.4135    Kinetic   = 1471.9183     Potential = -2490.3319  
VDW       = -2490.3319    QQ        = 0.0000        Bond      = 0.0000      
BondAngle = 0.0000        Torsion   = 0.0000        Tether    = 0.0000      
VIRIAL 
Total     = -38432.9805   Constraint= 0.0000      
VDW       = -38432.9805   QQ        = 0.0000        Bond      = 0.0000      
BondAngle = 0.0000        Torsion   = 0.0000        Tether    = 0.0000      

MeanSquaredDisplacement
Species1
Atom 1: 15.9563 
--------------------------------------------------------------------------------

Step 58700	 Instantaneous Values
System
Temperature(K) = 233.6718    
Pressure(kbar) = 542.1550    
ConservedQty   = -438.3515   
ENERGY 
Total     = -927.5301     Kinetic   = 1489.2074     Potential = -2416.7375  
VDW       = -2416.7375    QQ        = 0.0000        Bond      = 0.0000      
BondAngle = 0.0000        Torsion   = 0.0000        Tether    = 0.0000      
VIRIAL 
Total     = -39372.0231   Constraint= 0.0000      
VDW       = -39372.0231   QQ        = 0.0000        Bond      = 0.0000      
BondAngle = 0.0000        Torsion   = 0.0000        Tether    = 0.0000      

MeanSquaredDisplacement
Species1
Atom 1: 15.9561 
--------------------------------------------------------------------------------

Step 58800	 Instantaneous Values
System
Temperature(K) = 252.8470    
Pressure(kbar) = 543.8180    
ConservedQty   = -437.2948   
ENERGY 
Total     = -810.6641     Kinetic   = 1611.4125     Potential = -2422.0767  
VDW       = -2422.0767    QQ        = 0.0000        Bond      = 0.0000      
BondAngle = 0.0000        Torsion   = 0.0000        Tether    = 0.0000      
VIRIAL 
Total     = -39257.5196   Constraint= 0.0000      
VDW       = -39257.5196   QQ        = 0.0000        Bond      = 0.0000      
BondAngle = 0.0000        Torsion   = 0.0000        Tether    = 0.0000      

MeanSquaredDisplacement
Species1
Atom 1: 15.9515 
--------------------------------------------------------------------------------

Step 58900	 Instantaneous Values
System
Temperature(K) = 221.9283    
Pressure(kbar) = 519.7477    
ConservedQty   = -438.4373   
ENERGY 
Total     = -1116.3449    Kinetic   = 1414.3653     Potential = -2530.7101  
VDW       = -2530.7101    QQ        = 0.0000        Bond      = 0.0000      
BondAngle = 0.0000        Torsion   = 0.0000        Tether    = 0.0000      
VIRIAL 
Total     = -37771.3649   Constraint= 0.0000      
VDW       = -37771.3649   QQ        = 0.0000        Bond      = 0.0000      
BondAngle = 0.0000        Torsion   = 0.0000        Tether    = 0.0000      

MeanSquaredDisplacement
Species1
Atom 1: 15.9639 
--------------------------------------------------------------------------------

Step 59000	 Instantaneous Values
System
Temperature(K) = 251.4109    
Pressure(kbar) = 543.0181    
ConservedQty   = -437.3238   
ENERGY 
Total     = -821.9549     Kinetic   = 1602.2599     Potential = -2424.2148  
VDW       = -2424.2148    QQ        = 0.0000        Bond      = 0.0000      
BondAngle = 0.0000        Torsion   = 0.0000        Tether    = 0.0000      
VIRIAL 
Total     = -39213.3415   Constraint= 0.0000      
VDW       = -39213.3415   QQ        = 0.0000        Bond      = 0.0000      
BondAngle = 0.0000        Torsion   = 0.0000        Tether    = 0.0000      

MeanSquaredDisplacement
Species1
Atom 1: 15.9343 
--------------------------------------------------------------------------------

Step 59000	Averages
System
CELL
   A          B          C          Alpha      Beta       Gamma   
    7.5280     7.5280     7.5280    90.0000    90.0000    90.0000
Lattice vectors
   7.5280000000e+00    0.0000000000e+00    0.0000000000e+00
   1.2495983202e-39    7.5280000000e+00    0.0000000000e+00
   1.2495983202e-39    1.2495983202e-39    7.5280000000e+00
Cell Volume: 426.618   
Cell Type: Cubic    PBCType: CUBIC

Temperature(K) = 240.0898    
Pressure(kbar) = 628.3732    
ConservedQty   = -437.6819   
ENERGY 
Total     = -424.4771     Kinetic   = 1530.1097     Potential = -1954.5869  
VDW       = -1954.5869    QQ        = 0.0000        Bond      = 0.0000      
BondAngle = 0.0000        Torsion   = 0.0000        Tether    = 0.0000      
VIRIAL 
Total     = -46025.1574   Constraint= 0.0000      
VDW       = -46025.1574   QQ        = 0.0000        Bond      = 0.0000      
BondAngle = 0.0000        Torsion   = 0.0000        Tether    = 0.0000      

--------------------------------------------------------------------------------

--------------------------------------------------------------------------------

Step 59100	 Instantaneous Values
System
Temperature(K) = 230.2580    
Pressure(kbar) = 530.2656    
ConservedQty   = -439.3612   
ENERGY 
Total     = -1018.9102    Kinetic   = 1467.4509     Potential = -2486.3611  
VDW       = -2486.3611    QQ        = 0.0000        Bond      = 0.0000      
BondAngle = 0.0000        Torsion   = 0.0000        Tether    = 0.0000      
VIRIAL 
Total     = -38486.7941   Constraint= 0.0000      
VDW       = -38486.7941   QQ        = 0.0000        Bond      = 0.0000      
BondAngle = 0.0000        Torsion   = 0.0000        Tether    = 0.0000      

MeanSquaredDisplacement
Species1
Atom 1: 15.894 
--------------------------------------------------------------------------------

Step 59200	 Instantaneous Values
System
Temperature(K) = 225.6918    
Pressure(kbar) = 527.4151    
ConservedQty   = -440.9135   
ENERGY 
Total     = -1057.1381    Kinetic   = 1438.3502     Potential = -2495.4883  
VDW       = -2495.4883    QQ        = 0.0000        Bond      = 0.0000      
BondAngle = 0.0000        Torsion   = 0.0000        Tether    = 0.0000      
VIRIAL 
Total     = -38322.3305   Constraint= 0.0000      
VDW       = -38322.3305   QQ        = 0.0000        Bond      = 0.0000      
BondAngle = 0.0000        Torsion   = 0.0000        Tether    = 0.0000      

MeanSquaredDisplacement
Species1
Atom 1: 15.9227 
--------------------------------------------------------------------------------

Step 59300	 Instantaneous Values
System
Temperature(K) = 246.7519    
Pressure(kbar) = 548.0658    
ConservedQty   = -438.3934   
ENERGY 
Total     = -827.4031     Kinetic   = 1572.5676     Potential = -2399.9706  
VDW       = -2399.9706    QQ        = 0.0000        Bond      = 0.0000      
BondAngle = 0.0000        Torsion   = 0.0000        Tether    = 0.0000      
VIRIAL 
Total     = -39667.0248   Constraint= 0.0000      
VDW       = -39667.0248   QQ        = 0.0000        Bond      = 0.0000      
BondAngle = 0.0000        Torsion   = 0.0000        Tether    = 0.0000      

MeanSquaredDisplacement
Species1
Atom 1: 15.9466 
--------------------------------------------------------------------------------

Step 59400	 Instantaneous Values
System
Temperature(K) = 231.9611    
Pressure(kbar) = 512.0970    
ConservedQty   = -439.9410   
ENERGY 
Total     = -1098.9399    Kinetic   = 1478.3052     Potential = -2577.2451  
VDW       = -2577.2451    QQ        = 0.0000        Bond      = 0.0000      
BondAngle = 0.0000        Torsion   = 0.0000        Tether    = 0.0000      
VIRIAL 
Total     = -37045.8495   Constraint= 0.0000      
VDW       = -37045.8495   QQ        = 0.0000        Bond      = 0.0000      
BondAngle = 0.0000        Torsion   = 0.0000        Tether    = 0.0000      

MeanSquaredDisplacement
Species1
Atom 1: 15.9292 
--------------------------------------------------------------------------------

Step 59500	 Instantaneous Values
System
Temperature(K) = 241.4834    
Pressure(kbar) = 539.6702    
ConservedQty   = -441.0276   
ENERGY 
Total     = -906.6085     Kinetic   = 1538.9914     Potential = -2445.5999  
VDW       = -2445.5999    QQ        = 0.0000        Bond      = 0.0000      
BondAngle = 0.0000        Torsion   = 0.0000        Tether    = 0.0000      
VIRIAL 
Total     = -39078.3552   Constraint= 0.0000      
VDW       = -39078.3552   QQ        = 0.0000        Bond      = 0.0000      
BondAngle = 0.0000        Torsion   = 0.0000        Tether    = 0.0000      

MeanSquaredDisplacement
Species1
Atom 1: 15.9083 
--------------------------------------------------------------------------------

Step 59600	 Instantaneous Values
System
Temperature(K) = 227.0601    
Pressure(kbar) = 537.7798    
ConservedQty   = -438.0798   
ENERGY 
Total     = -985.8745     Kinetic   = 1447.0707     Potential = -2432.9452  
VDW       = -2432.9452    QQ        = 0.0000        Bond      = 0.0000      
BondAngle = 0.0000        Torsion   = 0.0000        Tether    = 0.0000      
VIRIAL 
Total     = -39114.5304   Constraint= 0.0000      
VDW       = -39114.5304   QQ        = 0.0000        Bond      = 0.0000      
BondAngle = 0.0000        Torsion   = 0.0000        Tether    = 0.0000      

MeanSquaredDisplacement
Species1
Atom 1: 15.9358 
--------------------------------------------------------------------------------

Step 59700	 Instantaneous Values
System
Temperature(K) = 229.6860    
Pressure(kbar) = 524.8107    
ConservedQty   = -439.9451   
ENERGY 
Total     = -1045.5912    Kinetic   = 1463.8057     Potential = -2509.3969  
VDW       = -2509.3969    QQ        = 0.0000        Bond      = 0.0000      
BondAngle = 0.0000        Torsion   = 0.0000        Tether    = 0.0000      
VIRIAL 
Total     = -38067.9773   Constraint= 0.0000      
VDW       = -38067.9773   QQ        = 0.0000        Bond      = 0.0000      
BondAngle = 0.0000        Torsion   = 0.0000        Tether    = 0.0000      

MeanSquaredDisplacement
Species1
Atom 1: 15.9345 
--------------------------------------------------------------------------------

Step 59800	 Instantaneous Values
System
Temperature(K) = 239.2266    
Pressure(kbar) = 538.1586    
ConservedQty   = -439.4360   
ENERGY 
Total     = -920.3603     Kinetic   = 1524.6086     Potential = -2444.9690  
VDW       = -2444.9690    QQ        = 0.0000        Bond      = 0.0000      
BondAngle = 0.0000        Torsion   = 0.0000        Tether    = 0.0000      
VIRIAL 
Total     = -38989.0424   Constraint= 0.0000      
VDW       = -38989.0424   QQ        = 0.0000        Bond      = 0.0000      
BondAngle = 0.0000        Torsion   = 0.0000        Tether    = 0.0000      

MeanSquaredDisplacement
Species1
Atom 1: 15.9389 
--------------------------------------------------------------------------------

Step 59900	 Instantaneous Values
System
Temperature(K) = 232.4302    
Pressure(kbar) = 519.1394    
ConservedQty   = -442.0686   
ENERGY 
Total     = -1060.2631    Kinetic   = 1481.2944     Potential = -2541.5576  
VDW       = -2541.5576    QQ        = 0.0000        Bond      = 0.0000      
BondAngle = 0.0000        Torsion   = 0.0000        Tether    = 0.0000      
VIRIAL 
Total     = -37589.9827   Constraint= 0.0000      
VDW       = -37589.9827   QQ        = 0.0000        Bond      = 0.0000      
BondAngle = 0.0000        Torsion   = 0.0000        Tether    = 0.0000      

MeanSquaredDisplacement
Species1
Atom 1: 15.8533 
--------------------------------------------------------------------------------

Step 60000	 Instantaneous Values
System
Temperature(K) = 254.4002    
Pressure(kbar) = 513.8041    
ConservedQty   = -441.2043   
ENERGY 
Total     = -968.1738     Kinetic   = 1621.3109     Potential = -2589.4846  
VDW       = -2589.4846    QQ        = 0.0000        Bond      = 0.0000      
BondAngle = 0.0000        Torsion   = 0.0000        Tether    = 0.0000      
VIRIAL 
Total     = -36893.1842   Constraint= 0.0000      
VDW       = -36893.1842   QQ        = 0.0000        Bond      = 0.0000      
BondAngle = 0.0000        Torsion   = 0.0000        Tether    = 0.0000      

MeanSquaredDisplacement
Species1
Atom 1: 15.8777 
--------------------------------------------------------------------------------

Step 60000	Averages
System
CELL
   A          B          C          Alpha      Beta       Gamma   
    7.5280     7.5280     7.5280    90.0000    90.0000    90.0000
Lattice vectors
   7.5280000000e+00    0.0000000000e+00    0.0000000000e+00
   1.2246063538e-39    7.5280000000e+00    0.0000000000e+00
   1.2246063538e-39    1.2246063538e-39    7.5280000000e+00
Cell Volume: 426.618   
Cell Type: Cubic    PBCType: CUBIC

Temperature(K) = 240.0059    
Pressure(kbar) = 626.3882    
ConservedQty   = -437.7290   
ENERGY 
Total     = -435.7661     Kinetic   = 1529.5751     Potential = -1965.3412  
VDW       = -1965.3412    QQ        = 0.0000        Bond      = 0.0000      
BondAngle = 0.0000        Torsion   = 0.0000        Tether    = 0.0000      
VIRIAL 
Total     = -45871.1644   Constraint= 0.0000      
VDW       = -45871.1644   QQ        = 0.0000        Bond      = 0.0000      
BondAngle = 0.0000        Torsion   = 0.0000        Tether    = 0.0000      

--------------------------------------------------------------------------------

--------------------------------------------------------------------------------

Step 60000	Averages
System
CELL
   A          B          C          Alpha      Beta       Gamma   
    7.5280     7.5280     7.5280    90.0000    90.0000    90.0000
Lattice vectors
   7.5280000000e+00    0.0000000000e+00    0.0000000000e+00
   1.2246063538e-39    7.5280000000e+00    0.0000000000e+00
   1.2246063538e-39    1.2246063538e-39    7.5280000000e+00
Cell Volume: 426.618   
Cell Type: Cubic    PBCType: CUBIC

Temperature(K) = 240.0059    
Pressure(kbar) = 626.3882    
ConservedQty   = -437.7290   
ENERGY 
Total     = -435.7661     Kinetic   = 1529.5751     Potential = -1965.3412  
VDW       = -1965.3412    QQ        = 0.0000        Bond      = 0.0000      
BondAngle = 0.0000        Torsion   = 0.0000        Tether    = 0.0000      
VIRIAL 
Total     = -45871.1644   Constraint= 0.0000      
VDW       = -45871.1644   QQ        = 0.0000        Bond      = 0.0000      
BondAngle = 0.0000        Torsion   = 0.0000        Tether    = 0.0000      

--------------------------------------------------------------------------------

